** Generated for: hspiceD
** Generated on: Jun 14 12:58:44 2013
** Design library name: FFPUF_SCA
** Design cell name: 128stagesMux2Arb
** Design view name: schematic
.GLOBAL vss! vdd!


.TEMP 25
.OPTION
+    ARTIST=2
+    INGOLD=2
+    PARHIER=LOCAL
+    PSF=2

** Library name: NangateOpenCellLibrary
** Cell name: NAND2_X1
** View name: schematic
.subckt NAND2_X1 a1 a2 zn
m_i_3 zn a2 vdd! vdd! pmos L=50e-9 W=630e-9
m_i_2 vdd! a1 zn vdd! pmos L=50e-9 W=630e-9
m_i_0 zn a1 net_0 vss! nmos L=50e-9 W=415e-9
m_i_1 net_0 a2 vss! vss! nmos L=50e-9 W=415e-9
.ends NAND2_X1
** End of subcircuit definition.

** Library name: NangateOpenCellLibrary
** Cell name: INV_X1
** View name: schematic
.subckt INV_X1 a zn
m_i_0 zn a vss! vss! nmos L=50e-9 W=415e-9
m_i_1 zn a vdd! vdd! pmos L=50e-9 W=630e-9
.ends INV_X1
** End of subcircuit definition.

** Library name: FFPUF_SCA
** Cell name: Arbiter
** View name: schematic
.subckt Arbiter a b y_a y_b
xi1 net6 b net5 NAND2_X1
xi0 net5 a net6 NAND2_X1
xi5 net5 y_b INV_X1
xi4 net6 y_a INV_X1
.ends Arbiter
** End of subcircuit definition.

** Library name: NangateOpenCellLibrary
** Cell name: DFF_X1
** View name: schematic
.subckt DFF_X1 ck d q qn
m_mn3 z2 d vss! vss! nmos L=50e-9 W=275e-9
m_mn4 z2 cni z3 vss! nmos L=50e-9 W=275e-9
m_mn6 vss! z4 z6 vss! nmos L=50e-9 W=90e-9
m_mn7 z3 ci z6 vss! nmos L=50e-9 W=90e-9
m_mn1 vss! ck cni vss! nmos L=50e-9 W=210e-9
m_mn8 z12 z3 vss! vss! nmos L=50e-9 W=210e-9
m_mn9 z9 ci z12 vss! nmos L=50e-9 W=210e-9
m_mn12 z9 cni z8 vss! nmos L=50e-9 W=90e-9
m_mn11 z8 z10 vss! vss! nmos L=50e-9 W=90e-9
m_mn14 qn z9 vss! vss! nmos L=50e-9 W=415e-9
m_mn13 vss! z10 q vss! nmos L=50e-9 W=415e-9
m_mn5 z4 z3 vss! vss! nmos L=50e-9 W=210e-9
m_mn2 ci cni vss! vss! nmos L=50e-9 W=210e-9
m_mn10 vss! z9 z10 vss! nmos L=50e-9 W=210e-9
m_mp4 z3 ci z5 vdd! pmos L=50e-9 W=420e-9
m_mp3 z5 d vdd! vdd! pmos L=50e-9 W=420e-9
m_mp7 z1 cni z3 vdd! pmos L=50e-9 W=90e-9
m_mp6 vdd! z4 z1 vdd! pmos L=50e-9 W=90e-9
m_mp1 vdd! ck cni vdd! pmos L=50e-9 W=315e-9
m_mp8 z7 z3 vdd! vdd! pmos L=50e-9 W=315e-9
m_mp9 z9 cni z7 vdd! pmos L=50e-9 W=315e-9
m_mp12 z9 ci z11 vdd! pmos L=50e-9 W=90e-9
m_mp11 z11 z10 vdd! vdd! pmos L=50e-9 W=90e-9
m_mp14 qn z9 vdd! vdd! pmos L=50e-9 W=630e-9
m_mp13 vdd! z10 q vdd! pmos L=50e-9 W=630e-9
m_mp5 z4 z3 vdd! vdd! pmos L=50e-9 W=315e-9
m_mp2 ci cni vdd! vdd! pmos L=50e-9 W=315e-9
m_mp10 vdd! z9 z10 vdd! pmos L=50e-9 W=315e-9
.ends DFF_X1
** End of subcircuit definition.

** Library name: FFPUF_SCA
** Cell name: 128stagesMux2Arb
** View name: schematic
m3154 s128a net028885 vss! vss! nmos L=50e-9 W=415e-9
m3152 net028885 net028897 net022149 vss! nmos L=50e-9 W=210e-9
m3151 net022149 s127a vss! vss! nmos L=50e-9 W=210e-9
m3148 vss! chal128 net028897 vss! nmos L=50e-9 W=210e-9
m3147 s127a net028921 vss! vss! nmos L=50e-9 W=415e-9
m3145 net028921 net028933 net022165 vss! nmos L=50e-9 W=210e-9
m3144 net022165 s126a vss! vss! nmos L=50e-9 W=210e-9
m3143 vss! chal127 net028933 vss! nmos L=50e-9 W=210e-9
m3140 s126a net028965 vss! vss! nmos L=50e-9 W=415e-9
m3138 net028965 net028945 net022181 vss! nmos L=50e-9 W=210e-9
m3137 net022181 s125a vss! vss! nmos L=50e-9 W=210e-9
m3134 vss! chal126 net028945 vss! nmos L=50e-9 W=210e-9
m3133 net022197 s124a vss! vss! nmos L=50e-9 W=210e-9
m3132 net21589 net029005 net022197 vss! nmos L=50e-9 W=210e-9
m3131 s125a net21589 vss! vss! nmos L=50e-9 W=415e-9
m3129 vss! chal125 net029005 vss! nmos L=50e-9 W=210e-9
m3125 net022213 s123a vss! vss! nmos L=50e-9 W=210e-9
m3124 net029037 net029033 net022213 vss! nmos L=50e-9 W=210e-9
m3123 s124a net029037 vss! vss! nmos L=50e-9 W=415e-9
m3122 vss! chal124 net029033 vss! nmos L=50e-9 W=210e-9
m3118 s123a net029065 vss! vss! nmos L=50e-9 W=415e-9
m3115 vss! chal123 net029077 vss! nmos L=50e-9 W=210e-9
m3114 net029065 net029077 net022233 vss! nmos L=50e-9 W=210e-9
m3113 net022233 s122a vss! vss! nmos L=50e-9 W=210e-9
m3110 net029101 net029113 net022241 vss! nmos L=50e-9 W=210e-9
m3109 net022241 s121a vss! vss! nmos L=50e-9 W=210e-9
m3108 s122a net029101 vss! vss! nmos L=50e-9 W=415e-9
m3106 vss! chal122 net029113 vss! nmos L=50e-9 W=210e-9
m3105 net022261 s120a vss! vss! nmos L=50e-9 W=210e-9
m3104 net029145 net029141 net022261 vss! nmos L=50e-9 W=210e-9
m3103 s121a net029145 vss! vss! nmos L=50e-9 W=415e-9
m3101 vss! chal121 net029141 vss! nmos L=50e-9 W=210e-9
m3098 s120a net029173 vss! vss! nmos L=50e-9 W=415e-9
m3096 net029173 net029185 net022277 vss! nmos L=50e-9 W=210e-9
m3095 net022277 s119a vss! vss! nmos L=50e-9 W=210e-9
m3092 vss! chal120 net029185 vss! nmos L=50e-9 W=210e-9
m3091 s119a net029209 vss! vss! nmos L=50e-9 W=415e-9
m3089 net029209 net029221 net022293 vss! nmos L=50e-9 W=210e-9
m3088 net022293 s118a vss! vss! nmos L=50e-9 W=210e-9
m3087 vss! chal119 net029221 vss! nmos L=50e-9 W=210e-9
m3084 s118a net029245 vss! vss! nmos L=50e-9 W=415e-9
m3082 net029245 net029257 net022309 vss! nmos L=50e-9 W=210e-9
m3080 net022309 s117a vss! vss! nmos L=50e-9 W=210e-9
m3078 vss! chal118 net029257 vss! nmos L=50e-9 W=210e-9
m3077 net20711 net029293 net022321 vss! nmos L=50e-9 W=210e-9
m3076 s117a net20711 vss! vss! nmos L=50e-9 W=415e-9
m3074 net022321 s116a vss! vss! nmos L=50e-9 W=210e-9
m3073 vss! chal117 net029293 vss! nmos L=50e-9 W=210e-9
m3068 s116a net029317 vss! vss! nmos L=50e-9 W=415e-9
m3067 net029317 net029329 net022341 vss! nmos L=50e-9 W=210e-9
m3066 net022341 s115a vss! vss! nmos L=50e-9 W=210e-9
m3064 vss! chal116 net029329 vss! nmos L=50e-9 W=210e-9
m3063 net022357 s114a vss! vss! nmos L=50e-9 W=210e-9
m3062 net029361 net029357 net022357 vss! nmos L=50e-9 W=210e-9
m3061 s115a net029361 vss! vss! nmos L=50e-9 W=415e-9
m3059 vss! chal115 net029357 vss! nmos L=50e-9 W=210e-9
m3055 s114a net029389 vss! vss! nmos L=50e-9 W=415e-9
m3054 net022377 s113a vss! vss! nmos L=50e-9 W=210e-9
m3053 net029389 net029401 net022377 vss! nmos L=50e-9 W=210e-9
m3052 vss! chal114 net029401 vss! nmos L=50e-9 W=210e-9
m3048 s113a net029425 vss! vss! nmos L=50e-9 W=415e-9
m3045 net029425 net029437 net022389 vss! nmos L=50e-9 W=210e-9
m3044 net022389 s112a vss! vss! nmos L=50e-9 W=210e-9
m3043 vss! chal113 net029437 vss! nmos L=50e-9 W=210e-9
m3041 s112a net029469 vss! vss! nmos L=50e-9 W=415e-9
m3038 vss! chal112 net029465 vss! nmos L=50e-9 W=210e-9
m3037 net022413 s111a vss! vss! nmos L=50e-9 W=210e-9
m3036 net029469 net029465 net022413 vss! nmos L=50e-9 W=210e-9
m3033 net022421 s110a vss! vss! nmos L=50e-9 W=210e-9
m3032 net029497 net029509 net022421 vss! nmos L=50e-9 W=210e-9
m3030 s111a net029497 vss! vss! nmos L=50e-9 W=415e-9
m3029 vss! chal111 net029509 vss! nmos L=50e-9 W=210e-9
m3027 s110a net029533 vss! vss! nmos L=50e-9 W=415e-9
m3024 net022441 s109a vss! vss! nmos L=50e-9 W=210e-9
m3023 net029533 net029545 net022441 vss! nmos L=50e-9 W=210e-9
m3022 vss! chal110 net029545 vss! nmos L=50e-9 W=210e-9
m3018 s109a net19022 vss! vss! nmos L=50e-9 W=415e-9
m3017 net19022 net029581 net022453 vss! nmos L=50e-9 W=210e-9
m3016 net022453 s108a vss! vss! nmos L=50e-9 W=210e-9
m3015 vss! chal109 net029581 vss! nmos L=50e-9 W=210e-9
m3012 s108a net029609 vss! vss! nmos L=50e-9 W=415e-9
m3011 net029609 net029613 net022469 vss! nmos L=50e-9 W=210e-9
m3010 net022469 s107a vss! vss! nmos L=50e-9 W=210e-9
m3008 vss! chal108 net029613 vss! nmos L=50e-9 W=210e-9
m3007 s107a net029641 vss! vss! nmos L=50e-9 W=415e-9
m3005 vss! chal107 net029653 vss! nmos L=50e-9 W=210e-9
m3002 net022493 s106a vss! vss! nmos L=50e-9 W=210e-9
m3001 net029641 net029653 net022493 vss! nmos L=50e-9 W=210e-9
m2999 s106a net029677 vss! vss! nmos L=50e-9 W=415e-9
m2998 net022505 s105a vss! vss! nmos L=50e-9 W=210e-9
m2997 net029677 net029689 net022505 vss! nmos L=50e-9 W=210e-9
m2996 vss! chal106 net029689 vss! nmos L=50e-9 W=210e-9
m2992 s105a net029717 vss! vss! nmos L=50e-9 W=415e-9
m2991 net029717 net029721 net022517 vss! nmos L=50e-9 W=210e-9
m2990 net022517 s104a vss! vss! nmos L=50e-9 W=210e-9
m2987 vss! chal105 net029721 vss! nmos L=50e-9 W=210e-9
m2985 s104a net029749 vss! vss! nmos L=50e-9 W=415e-9
m2982 vss! chal104 net029761 vss! nmos L=50e-9 W=210e-9
m2981 net022541 s103a vss! vss! nmos L=50e-9 W=210e-9
m2980 net029749 net029761 net022541 vss! nmos L=50e-9 W=210e-9
m2977 net022549 s102a vss! vss! nmos L=50e-9 W=210e-9
m2976 net029785 net029797 net022549 vss! nmos L=50e-9 W=210e-9
m2974 s103a net029785 vss! vss! nmos L=50e-9 W=415e-9
m2973 vss! chal103 net029797 vss! nmos L=50e-9 W=210e-9
m2971 s102a net029821 vss! vss! nmos L=50e-9 W=415e-9
m2968 net022569 s101a vss! vss! nmos L=50e-9 W=210e-9
m2967 net029821 net029833 net022569 vss! nmos L=50e-9 W=210e-9
m2966 vss! chal102 net029833 vss! nmos L=50e-9 W=210e-9
m2962 s101a net19841 vss! vss! nmos L=50e-9 W=415e-9
m2961 net19841 net029861 net022581 vss! nmos L=50e-9 W=210e-9
m2960 net022581 s100a vss! vss! nmos L=50e-9 W=210e-9
m2959 vss! chal101 net029861 vss! nmos L=50e-9 W=210e-9
m2957 s100a net029893 vss! vss! nmos L=50e-9 W=415e-9
m2956 net022601 s99a vss! vss! nmos L=50e-9 W=210e-9
m2955 net029893 net029905 net022601 vss! nmos L=50e-9 W=210e-9
m2952 vss! chal100 net029905 vss! nmos L=50e-9 W=210e-9
m2950 s99a net029933 vss! vss! nmos L=50e-9 W=415e-9
m2949 net029933 net029937 net022613 vss! nmos L=50e-9 W=210e-9
m2948 net022613 s98a vss! vss! nmos L=50e-9 W=210e-9
m2945 vss! chal99 net029937 vss! nmos L=50e-9 W=210e-9
m2944 s98a net029965 vss! vss! nmos L=50e-9 W=415e-9
m2943 net029965 net029977 net022629 vss! nmos L=50e-9 W=210e-9
m2942 net022629 s97a vss! vss! nmos L=50e-9 W=210e-9
m2938 vss! chal98 net029977 vss! nmos L=50e-9 W=210e-9
m2937 s97a net030009 vss! vss! nmos L=50e-9 W=415e-9
m2935 net022649 s96a vss! vss! nmos L=50e-9 W=210e-9
m2934 net030009 net030005 net022649 vss! nmos L=50e-9 W=210e-9
m2931 vss! chal97 net030005 vss! nmos L=50e-9 W=210e-9
m2930 s96a net030045 vss! vss! nmos L=50e-9 W=415e-9
m2928 net030045 net030025 net022661 vss! nmos L=50e-9 W=210e-9
m2927 net022661 s95a vss! vss! nmos L=50e-9 W=210e-9
m2926 vss! chal96 net030025 vss! nmos L=50e-9 W=210e-9
m2923 s95a net030073 vss! vss! nmos L=50e-9 W=415e-9
m2921 net030073 net030085 net022677 vss! nmos L=50e-9 W=210e-9
m2920 net022677 s94a vss! vss! nmos L=50e-9 W=210e-9
m2917 vss! chal95 net030085 vss! nmos L=50e-9 W=210e-9
m2916 s94a net030109 vss! vss! nmos L=50e-9 W=415e-9
m2915 net030109 net030121 net022693 vss! nmos L=50e-9 W=210e-9
m2914 net022693 s93a vss! vss! nmos L=50e-9 W=210e-9
m2912 vss! chal94 net030121 vss! nmos L=50e-9 W=210e-9
m2909 s93a net20343 vss! vss! nmos L=50e-9 W=415e-9
m2907 net022713 s92a vss! vss! nmos L=50e-9 W=210e-9
m2906 net20343 net030157 net022713 vss! nmos L=50e-9 W=210e-9
m2903 vss! chal93 net030157 vss! nmos L=50e-9 W=210e-9
m2899 s92a net030181 vss! vss! nmos L=50e-9 W=415e-9
m2898 net022729 s91a vss! vss! nmos L=50e-9 W=210e-9
m2897 net030181 net030193 net022729 vss! nmos L=50e-9 W=210e-9
m2896 vss! chal92 net030193 vss! nmos L=50e-9 W=210e-9
m2894 net022741 s90a vss! vss! nmos L=50e-9 W=210e-9
m2893 net030217 net030229 net022741 vss! nmos L=50e-9 W=210e-9
m2892 s91a net030217 vss! vss! nmos L=50e-9 W=415e-9
m2889 vss! chal91 net030229 vss! nmos L=50e-9 W=210e-9
m2887 s90a net030261 vss! vss! nmos L=50e-9 W=415e-9
m2884 net022761 s89a vss! vss! nmos L=50e-9 W=210e-9
m2883 net030261 net030257 net022761 vss! nmos L=50e-9 W=210e-9
m2882 vss! chal90 net030257 vss! nmos L=50e-9 W=210e-9
m2880 net022773 s88a vss! vss! nmos L=50e-9 W=210e-9
m2879 net030297 net030277 net022773 vss! nmos L=50e-9 W=210e-9
m2878 s89a net030297 vss! vss! nmos L=50e-9 W=415e-9
m2877 vss! chal89 net030277 vss! nmos L=50e-9 W=210e-9
m2873 s88a net030325 vss! vss! nmos L=50e-9 W=415e-9
m2870 net030325 net030337 net022789 vss! nmos L=50e-9 W=210e-9
m2869 net022789 s87a vss! vss! nmos L=50e-9 W=210e-9
m2868 vss! chal88 net030337 vss! nmos L=50e-9 W=210e-9
m2866 s87a net030361 vss! vss! nmos L=50e-9 W=415e-9
m2865 net030361 net030373 net022805 vss! nmos L=50e-9 W=210e-9
m2864 net022805 s86a vss! vss! nmos L=50e-9 W=210e-9
m2861 vss! chal87 net030373 vss! nmos L=50e-9 W=210e-9
m2859 s86a net030397 vss! vss! nmos L=50e-9 W=415e-9
m2856 net022825 s85a vss! vss! nmos L=50e-9 W=210e-9
m2855 net030397 net030409 net022825 vss! nmos L=50e-9 W=210e-9
m2854 vss! chal86 net030409 vss! nmos L=50e-9 W=210e-9
m2852 s85a net030437 vss! vss! nmos L=50e-9 W=415e-9
m2851 net030437 net030441 net022837 vss! nmos L=50e-9 W=210e-9
m2850 net022837 s84a vss! vss! nmos L=50e-9 W=210e-9
m2847 vss! chal85 net030441 vss! nmos L=50e-9 W=210e-9
m2845 s84a net030469 vss! vss! nmos L=50e-9 W=415e-9
m2842 net022857 s83a vss! vss! nmos L=50e-9 W=210e-9
m2841 net030469 net030481 net022857 vss! nmos L=50e-9 W=210e-9
m2840 vss! chal84 net030481 vss! nmos L=50e-9 W=210e-9
m2838 net022869 s82a vss! vss! nmos L=50e-9 W=210e-9
m2837 net030505 net030517 net022869 vss! nmos L=50e-9 W=210e-9
m2836 s83a net030505 vss! vss! nmos L=50e-9 W=415e-9
m2833 vss! chal83 net030517 vss! nmos L=50e-9 W=210e-9
m2831 s82a net030541 vss! vss! nmos L=50e-9 W=415e-9
m2830 vss! chal82 net030553 vss! nmos L=50e-9 W=210e-9
m2827 net022893 s81a vss! vss! nmos L=50e-9 W=210e-9
m2826 net030541 net030553 net022893 vss! nmos L=50e-9 W=210e-9
m2824 s81a net19306 vss! vss! nmos L=50e-9 W=415e-9
m2823 net19306 net030589 net022901 vss! nmos L=50e-9 W=210e-9
m2822 net022901 s80a vss! vss! nmos L=50e-9 W=210e-9
m2820 vss! chal81 net030589 vss! nmos L=50e-9 W=210e-9
m2818 s128b net028869 vss! vss! nmos L=50e-9 W=415e-9
m2816 net022914 s127a vss! vss! nmos L=50e-9 W=210e-9
m2814 net028869 net028893 net022921 vss! nmos L=50e-9 W=210e-9
m2813 net028869 chal128 net022914 vss! nmos L=50e-9 W=210e-9
m2810 net022921 s127b vss! vss! nmos L=50e-9 W=210e-9
m2808 net022930 s127b vss! vss! nmos L=50e-9 W=210e-9
m2806 net028885 chal128 net022930 vss! nmos L=50e-9 W=210e-9
m2803 vss! chal128 net028893 vss! nmos L=50e-9 W=210e-9
m2801 net022942 s126a vss! vss! nmos L=50e-9 W=210e-9
m2800 s127b net028905 vss! vss! nmos L=50e-9 W=415e-9
m2799 net028905 net028929 net022953 vss! nmos L=50e-9 W=210e-9
m2798 net028905 chal127 net022942 vss! nmos L=50e-9 W=210e-9
m2796 net022953 s126b vss! vss! nmos L=50e-9 W=210e-9
m2795 net022962 s126b vss! vss! nmos L=50e-9 W=210e-9
m2794 net028921 chal127 net022962 vss! nmos L=50e-9 W=210e-9
m2786 vss! chal127 net028929 vss! nmos L=50e-9 W=210e-9
m2784 s126b net028949 vss! vss! nmos L=50e-9 W=415e-9
m2782 net022978 s125a vss! vss! nmos L=50e-9 W=210e-9
m2781 net028949 chal126 net022978 vss! nmos L=50e-9 W=210e-9
m2780 net022993 s125b vss! vss! nmos L=50e-9 W=210e-9
m2779 net028949 net028941 net022993 vss! nmos L=50e-9 W=210e-9
m2778 net022994 s125b vss! vss! nmos L=50e-9 W=210e-9
m2777 net028965 chal126 net022994 vss! nmos L=50e-9 W=210e-9
m2775 vss! chal126 net028941 vss! nmos L=50e-9 W=210e-9
m2767 s125b net028977 vss! vss! nmos L=50e-9 W=415e-9
m2765 net023010 s124a vss! vss! nmos L=50e-9 W=210e-9
m2763 net028977 chal125 net023010 vss! nmos L=50e-9 W=210e-9
m2761 net028977 net15878 net17576 vss! nmos L=50e-9 W=210e-9
m2760 net17576 s124b vss! vss! nmos L=50e-9 W=210e-9
m2757 net19531 s124b vss! vss! nmos L=50e-9 W=210e-9
m2755 net21589 chal125 net19531 vss! nmos L=50e-9 W=210e-9
m2752 vss! chal125 net15878 vss! nmos L=50e-9 W=210e-9
m2750 s124b net029021 vss! vss! nmos L=50e-9 W=415e-9
m2748 net023042 s123a vss! vss! nmos L=50e-9 W=210e-9
m2747 net029021 chal124 net023042 vss! nmos L=50e-9 W=210e-9
m2746 net029021 net029013 net023053 vss! nmos L=50e-9 W=210e-9
m2745 net023053 s123b vss! vss! nmos L=50e-9 W=210e-9
m2744 net023058 s123b vss! vss! nmos L=50e-9 W=210e-9
m2743 net029037 chal124 net023058 vss! nmos L=50e-9 W=210e-9
m2738 vss! chal124 net029013 vss! nmos L=50e-9 W=210e-9
m2733 s123b net029049 vss! vss! nmos L=50e-9 W=415e-9
m2729 net029049 chal123 net023078 vss! nmos L=50e-9 W=210e-9
m2728 net023078 s122a vss! vss! nmos L=50e-9 W=210e-9
m2726 net029049 net029073 net023085 vss! nmos L=50e-9 W=210e-9
m2724 net023085 s122b vss! vss! nmos L=50e-9 W=210e-9
m2722 net023090 s122b vss! vss! nmos L=50e-9 W=210e-9
m2720 net029065 chal123 net023090 vss! nmos L=50e-9 W=210e-9
m2718 vss! chal123 net029073 vss! nmos L=50e-9 W=210e-9
m2716 net023102 s121a vss! vss! nmos L=50e-9 W=210e-9
m2715 net029085 net029109 net023109 vss! nmos L=50e-9 W=210e-9
m2714 net029085 chal122 net023102 vss! nmos L=50e-9 W=210e-9
m2713 net023109 s121b vss! vss! nmos L=50e-9 W=210e-9
m2712 net023118 s121b vss! vss! nmos L=50e-9 W=210e-9
m2711 net029101 chal122 net023118 vss! nmos L=50e-9 W=210e-9
m2710 s122b net029085 vss! vss! nmos L=50e-9 W=415e-9
m2701 vss! chal122 net029109 vss! nmos L=50e-9 W=210e-9
m2699 s121b net029125 vss! vss! nmos L=50e-9 W=415e-9
m2697 net023138 s120a vss! vss! nmos L=50e-9 W=210e-9
m2696 net029125 chal121 net023138 vss! nmos L=50e-9 W=210e-9
m2695 net029125 net029121 net023149 vss! nmos L=50e-9 W=210e-9
m2694 net023149 s120b vss! vss! nmos L=50e-9 W=210e-9
m2693 net023154 s120b vss! vss! nmos L=50e-9 W=210e-9
m2692 net029145 chal121 net023154 vss! nmos L=50e-9 W=210e-9
m2688 vss! chal121 net029121 vss! nmos L=50e-9 W=210e-9
m2682 s120b net029157 vss! vss! nmos L=50e-9 W=415e-9
m2680 net023170 s119a vss! vss! nmos L=50e-9 W=210e-9
m2678 net029157 chal120 net023170 vss! nmos L=50e-9 W=210e-9
m2676 net023185 s119b vss! vss! nmos L=50e-9 W=210e-9
m2675 net029157 net029181 net023185 vss! nmos L=50e-9 W=210e-9
m2672 net023186 s119b vss! vss! nmos L=50e-9 W=210e-9
m2670 net029173 chal120 net023186 vss! nmos L=50e-9 W=210e-9
m2667 vss! chal120 net029181 vss! nmos L=50e-9 W=210e-9
m2665 s119b net029193 vss! vss! nmos L=50e-9 W=415e-9
m2663 net023202 s118a vss! vss! nmos L=50e-9 W=210e-9
m2661 net029193 chal119 net023202 vss! nmos L=50e-9 W=210e-9
m2659 net023217 s118b vss! vss! nmos L=50e-9 W=210e-9
m2658 net029193 net029217 net023217 vss! nmos L=50e-9 W=210e-9
m2655 net023218 s118b vss! vss! nmos L=50e-9 W=210e-9
m2653 net029209 chal119 net023218 vss! nmos L=50e-9 W=210e-9
m2650 vss! chal119 net029217 vss! nmos L=50e-9 W=210e-9
m2648 s118b net029229 vss! vss! nmos L=50e-9 W=415e-9
m2646 net023234 s117a vss! vss! nmos L=50e-9 W=210e-9
m2644 net029229 chal118 net023234 vss! nmos L=50e-9 W=210e-9
m2642 net023249 s117b vss! vss! nmos L=50e-9 W=210e-9
m2641 net029229 net029253 net023249 vss! nmos L=50e-9 W=210e-9
m2638 net023250 s117b vss! vss! nmos L=50e-9 W=210e-9
m2636 net029245 chal118 net023250 vss! nmos L=50e-9 W=210e-9
m2633 vss! chal118 net029253 vss! nmos L=50e-9 W=210e-9
m2631 net023262 s116a vss! vss! nmos L=50e-9 W=210e-9
m2630 net029265 chal117 net023262 vss! nmos L=50e-9 W=210e-9
m2629 s117b net029265 vss! vss! nmos L=50e-9 W=415e-9
m2628 net029265 net16859 net18435 vss! nmos L=50e-9 W=210e-9
m2627 net18435 s116b vss! vss! nmos L=50e-9 W=210e-9
m2625 net19505 s116b vss! vss! nmos L=50e-9 W=210e-9
m2624 net20711 chal117 net19505 vss! nmos L=50e-9 W=210e-9
m2616 vss! chal117 net16859 vss! nmos L=50e-9 W=210e-9
m2614 net029301 chal116 net023298 vss! nmos L=50e-9 W=210e-9
m2613 net023298 s115a vss! vss! nmos L=50e-9 W=210e-9
m2612 net029301 net029325 net023305 vss! nmos L=50e-9 W=210e-9
m2611 s116b net029301 vss! vss! nmos L=50e-9 W=415e-9
m2610 net023305 s115b vss! vss! nmos L=50e-9 W=210e-9
m2608 net023314 s115b vss! vss! nmos L=50e-9 W=210e-9
m2607 net029317 chal116 net023314 vss! nmos L=50e-9 W=210e-9
m2599 vss! chal116 net029325 vss! nmos L=50e-9 W=210e-9
m2597 s115b net029345 vss! vss! nmos L=50e-9 W=415e-9
m2595 net023330 s114a vss! vss! nmos L=50e-9 W=210e-9
m2594 net029345 chal115 net023330 vss! nmos L=50e-9 W=210e-9
m2593 net029345 net029337 net023341 vss! nmos L=50e-9 W=210e-9
m2592 net023341 s114b vss! vss! nmos L=50e-9 W=210e-9
m2591 net023346 s114b vss! vss! nmos L=50e-9 W=210e-9
m2590 net029361 chal115 net023346 vss! nmos L=50e-9 W=210e-9
m2585 vss! chal115 net029337 vss! nmos L=50e-9 W=210e-9
m2580 s114b net029377 vss! vss! nmos L=50e-9 W=415e-9
m2578 net023362 s113a vss! vss! nmos L=50e-9 W=210e-9
m2577 net029377 chal114 net023362 vss! nmos L=50e-9 W=210e-9
m2574 net029377 net029397 net023373 vss! nmos L=50e-9 W=210e-9
m2572 net023373 s113b vss! vss! nmos L=50e-9 W=210e-9
m2570 net023378 s113b vss! vss! nmos L=50e-9 W=210e-9
m2568 net029389 chal114 net023378 vss! nmos L=50e-9 W=210e-9
m2565 vss! chal114 net029397 vss! nmos L=50e-9 W=210e-9
m2563 net029409 chal113 net023394 vss! nmos L=50e-9 W=210e-9
m2562 net023394 s112a vss! vss! nmos L=50e-9 W=210e-9
m2561 s113b net029409 vss! vss! nmos L=50e-9 W=415e-9
m2560 net029409 net029433 net023405 vss! nmos L=50e-9 W=210e-9
m2558 net023405 s112b vss! vss! nmos L=50e-9 W=210e-9
m2557 net023410 s112b vss! vss! nmos L=50e-9 W=210e-9
m2556 net029425 chal113 net023410 vss! nmos L=50e-9 W=210e-9
m2548 vss! chal113 net029433 vss! nmos L=50e-9 W=210e-9
m2546 s112b net029453 vss! vss! nmos L=50e-9 W=415e-9
m2544 net023426 s111a vss! vss! nmos L=50e-9 W=210e-9
m2543 net029453 chal112 net023426 vss! nmos L=50e-9 W=210e-9
m2542 net029453 net029445 net023437 vss! nmos L=50e-9 W=210e-9
m2541 net023437 s111b vss! vss! nmos L=50e-9 W=210e-9
m2540 net023442 s111b vss! vss! nmos L=50e-9 W=210e-9
m2539 net029469 chal112 net023442 vss! nmos L=50e-9 W=210e-9
m2533 vss! chal112 net029445 vss! nmos L=50e-9 W=210e-9
m2529 s111b net029485 vss! vss! nmos L=50e-9 W=415e-9
m2521 net023458 s110a vss! vss! nmos L=50e-9 W=210e-9
m2520 net029485 chal111 net023458 vss! nmos L=50e-9 W=210e-9
m2519 net029485 net029505 net023469 vss! nmos L=50e-9 W=210e-9
m2518 net023469 s110b vss! vss! nmos L=50e-9 W=210e-9
m2517 net023474 s110b vss! vss! nmos L=50e-9 W=210e-9
m2516 net029497 chal111 net023474 vss! nmos L=50e-9 W=210e-9
m2514 vss! chal111 net029505 vss! nmos L=50e-9 W=210e-9
m2512 s110b net029517 vss! vss! nmos L=50e-9 W=415e-9
m2509 net023490 s109a vss! vss! nmos L=50e-9 W=210e-9
m2506 net029517 chal110 net023490 vss! nmos L=50e-9 W=210e-9
m2505 net029517 net029541 net023501 vss! nmos L=50e-9 W=210e-9
m2503 net023501 s109b vss! vss! nmos L=50e-9 W=210e-9
m2501 net023506 s109b vss! vss! nmos L=50e-9 W=210e-9
m2499 net029533 chal110 net023506 vss! nmos L=50e-9 W=210e-9
m2497 vss! chal110 net029541 vss! nmos L=50e-9 W=210e-9
m2495 s109b net029553 vss! vss! nmos L=50e-9 W=415e-9
m2492 net023522 s108a vss! vss! nmos L=50e-9 W=210e-9
m2489 net029553 net16774 net17356 vss! nmos L=50e-9 W=210e-9
m2488 net029553 chal109 net023522 vss! nmos L=50e-9 W=210e-9
m2486 net17356 s108b vss! vss! nmos L=50e-9 W=210e-9
m2484 net19023 s108b vss! vss! nmos L=50e-9 W=210e-9
m2482 net19022 chal109 net19023 vss! nmos L=50e-9 W=210e-9
m2480 vss! chal109 net16774 vss! nmos L=50e-9 W=210e-9
m2478 s108b net029589 vss! vss! nmos L=50e-9 W=415e-9
m2476 net029589 chal108 net023558 vss! nmos L=50e-9 W=210e-9
m2475 net023558 s107a vss! vss! nmos L=50e-9 W=210e-9
m2474 net029589 net029597 net023565 vss! nmos L=50e-9 W=210e-9
m2473 net023565 s107b vss! vss! nmos L=50e-9 W=210e-9
m2472 net023570 s107b vss! vss! nmos L=50e-9 W=210e-9
m2471 net029609 chal108 net023570 vss! nmos L=50e-9 W=210e-9
m2465 vss! chal108 net029597 vss! nmos L=50e-9 W=210e-9
m2461 s107b net029629 vss! vss! nmos L=50e-9 W=415e-9
m2453 net023586 s106a vss! vss! nmos L=50e-9 W=210e-9
m2452 net029629 chal107 net023586 vss! nmos L=50e-9 W=210e-9
m2451 net029629 net029649 net023597 vss! nmos L=50e-9 W=210e-9
m2450 net023597 s106b vss! vss! nmos L=50e-9 W=210e-9
m2449 net023602 s106b vss! vss! nmos L=50e-9 W=210e-9
m2448 net029641 chal107 net023602 vss! nmos L=50e-9 W=210e-9
m2446 vss! chal107 net029649 vss! nmos L=50e-9 W=210e-9
m2444 net023614 s105a vss! vss! nmos L=50e-9 W=210e-9
m2443 net029665 chal106 net023614 vss! nmos L=50e-9 W=210e-9
m2442 s106b net029665 vss! vss! nmos L=50e-9 W=415e-9
m2441 net029665 net029685 net023629 vss! nmos L=50e-9 W=210e-9
m2439 net023629 s105b vss! vss! nmos L=50e-9 W=210e-9
m2438 net023634 s105b vss! vss! nmos L=50e-9 W=210e-9
m2437 net029677 chal106 net023634 vss! nmos L=50e-9 W=210e-9
m2429 vss! chal106 net029685 vss! nmos L=50e-9 W=210e-9
m2427 s105b net029697 vss! vss! nmos L=50e-9 W=415e-9
m2425 net029697 chal105 net023654 vss! nmos L=50e-9 W=210e-9
m2424 net023654 s104a vss! vss! nmos L=50e-9 W=210e-9
m2423 net029697 net029705 net023661 vss! nmos L=50e-9 W=210e-9
m2422 net023661 s104b vss! vss! nmos L=50e-9 W=210e-9
m2421 net023666 s104b vss! vss! nmos L=50e-9 W=210e-9
m2420 net029717 chal105 net023666 vss! nmos L=50e-9 W=210e-9
m2414 vss! chal105 net029705 vss! nmos L=50e-9 W=210e-9
m2410 s104b net029737 vss! vss! nmos L=50e-9 W=415e-9
m2406 net023682 s103a vss! vss! nmos L=50e-9 W=210e-9
m2405 net029737 chal104 net023682 vss! nmos L=50e-9 W=210e-9
m2403 net029737 net029757 net023693 vss! nmos L=50e-9 W=210e-9
m2401 net023693 s103b vss! vss! nmos L=50e-9 W=210e-9
m2399 net023698 s103b vss! vss! nmos L=50e-9 W=210e-9
m2397 net029749 chal104 net023698 vss! nmos L=50e-9 W=210e-9
m2395 vss! chal104 net029757 vss! nmos L=50e-9 W=210e-9
m2393 s103b net029769 vss! vss! nmos L=50e-9 W=415e-9
m2390 net023714 s102a vss! vss! nmos L=50e-9 W=210e-9
m2387 net029769 chal103 net023714 vss! nmos L=50e-9 W=210e-9
m2386 net029769 net029793 net023725 vss! nmos L=50e-9 W=210e-9
m2384 net023725 s102b vss! vss! nmos L=50e-9 W=210e-9
m2382 net023730 s102b vss! vss! nmos L=50e-9 W=210e-9
m2380 net029785 chal103 net023730 vss! nmos L=50e-9 W=210e-9
m2378 vss! chal103 net029793 vss! nmos L=50e-9 W=210e-9
m2376 net023742 s101a vss! vss! nmos L=50e-9 W=210e-9
m2375 s102b net029805 vss! vss! nmos L=50e-9 W=415e-9
m2374 net029805 chal102 net023742 vss! nmos L=50e-9 W=210e-9
m2373 net029805 net029829 net023757 vss! nmos L=50e-9 W=210e-9
m2371 net023757 s101b vss! vss! nmos L=50e-9 W=210e-9
m2370 net023762 s101b vss! vss! nmos L=50e-9 W=210e-9
m2369 net029821 chal102 net023762 vss! nmos L=50e-9 W=210e-9
m2361 vss! chal102 net029829 vss! nmos L=50e-9 W=210e-9
m2359 s101b net029841 vss! vss! nmos L=50e-9 W=415e-9
m2357 net023778 s100a vss! vss! nmos L=50e-9 W=210e-9
m2356 net029841 net16703 net17250 vss! nmos L=50e-9 W=210e-9
m2355 net029841 chal101 net023778 vss! nmos L=50e-9 W=210e-9
m2354 net17250 s100b vss! vss! nmos L=50e-9 W=210e-9
m2353 net19424 s100b vss! vss! nmos L=50e-9 W=210e-9
m2352 net19841 chal101 net19424 vss! nmos L=50e-9 W=210e-9
m2346 vss! chal101 net16703 vss! nmos L=50e-9 W=210e-9
m2342 net023806 s99a vss! vss! nmos L=50e-9 W=210e-9
m2341 net029881 chal100 net023806 vss! nmos L=50e-9 W=210e-9
m2340 net029881 net029901 net023817 vss! nmos L=50e-9 W=210e-9
m2339 net023817 s99b vss! vss! nmos L=50e-9 W=210e-9
m2338 net023822 s99b vss! vss! nmos L=50e-9 W=210e-9
m2337 net029893 chal100 net023822 vss! nmos L=50e-9 W=210e-9
m2336 s100b net029881 vss! vss! nmos L=50e-9 W=415e-9
m2327 vss! chal100 net029901 vss! nmos L=50e-9 W=210e-9
m2325 s99b net029913 vss! vss! nmos L=50e-9 W=415e-9
m2323 net029913 chal99 net023846 vss! nmos L=50e-9 W=210e-9
m2322 net023846 s98a vss! vss! nmos L=50e-9 W=210e-9
m2321 net029913 net029921 net023853 vss! nmos L=50e-9 W=210e-9
m2320 net023853 s98b vss! vss! nmos L=50e-9 W=210e-9
m2319 net023858 s98b vss! vss! nmos L=50e-9 W=210e-9
m2318 net029933 chal99 net023858 vss! nmos L=50e-9 W=210e-9
m2313 vss! chal99 net029921 vss! nmos L=50e-9 W=210e-9
m2308 net029949 chal98 net023874 vss! nmos L=50e-9 W=210e-9
m2307 net023874 s97a vss! vss! nmos L=50e-9 W=210e-9
m2306 net029949 net029973 net023881 vss! nmos L=50e-9 W=210e-9
m2305 s98b net029949 vss! vss! nmos L=50e-9 W=415e-9
m2304 net023881 s97b vss! vss! nmos L=50e-9 W=210e-9
m2302 net023890 s97b vss! vss! nmos L=50e-9 W=210e-9
m2301 net029965 chal98 net023890 vss! nmos L=50e-9 W=210e-9
m2293 vss! chal98 net029973 vss! nmos L=50e-9 W=210e-9
m2291 net023902 s96a vss! vss! nmos L=50e-9 W=210e-9
m2290 net029993 chal97 net023902 vss! nmos L=50e-9 W=210e-9
m2289 s97b net029993 vss! vss! nmos L=50e-9 W=415e-9
m2288 net029993 net029985 net023917 vss! nmos L=50e-9 W=210e-9
m2287 net023917 s96b vss! vss! nmos L=50e-9 W=210e-9
m2285 net023922 s96b vss! vss! nmos L=50e-9 W=210e-9
m2284 net030009 chal97 net023922 vss! nmos L=50e-9 W=210e-9
m2279 vss! chal97 net029985 vss! nmos L=50e-9 W=210e-9
m2274 s96b net030029 vss! vss! nmos L=50e-9 W=415e-9
m2272 net030029 chal96 net023942 vss! nmos L=50e-9 W=210e-9
m2271 net023942 s95a vss! vss! nmos L=50e-9 W=210e-9
m2270 net030029 net030021 net023949 vss! nmos L=50e-9 W=210e-9
m2269 net023949 s95b vss! vss! nmos L=50e-9 W=210e-9
m2268 net023954 s95b vss! vss! nmos L=50e-9 W=210e-9
m2267 net030045 chal96 net023954 vss! nmos L=50e-9 W=210e-9
m2265 vss! chal96 net030021 vss! nmos L=50e-9 W=210e-9
m2257 s95b net030057 vss! vss! nmos L=50e-9 W=415e-9
m2255 net030057 chal95 net023974 vss! nmos L=50e-9 W=210e-9
m2254 net023974 s94a vss! vss! nmos L=50e-9 W=210e-9
m2251 net030057 net030081 net023981 vss! nmos L=50e-9 W=210e-9
m2249 net023981 s94b vss! vss! nmos L=50e-9 W=210e-9
m2247 net023986 s94b vss! vss! nmos L=50e-9 W=210e-9
m2245 net030073 chal95 net023986 vss! nmos L=50e-9 W=210e-9
m2242 vss! chal95 net030081 vss! nmos L=50e-9 W=210e-9
m2240 s94b net030093 vss! vss! nmos L=50e-9 W=415e-9
m2238 net030093 chal94 net024006 vss! nmos L=50e-9 W=210e-9
m2237 net024006 s93a vss! vss! nmos L=50e-9 W=210e-9
m2234 net030093 net030117 net024013 vss! nmos L=50e-9 W=210e-9
m2232 net024013 s93b vss! vss! nmos L=50e-9 W=210e-9
m2230 net024018 s93b vss! vss! nmos L=50e-9 W=210e-9
m2228 net030109 chal94 net024018 vss! nmos L=50e-9 W=210e-9
m2225 vss! chal94 net030117 vss! nmos L=50e-9 W=210e-9
m2223 net024030 s92a vss! vss! nmos L=50e-9 W=210e-9
m2222 net030133 chal93 net024030 vss! nmos L=50e-9 W=210e-9
m2221 net030133 net16587 net16590 vss! nmos L=50e-9 W=210e-9
m2220 net16590 s92b vss! vss! nmos L=50e-9 W=210e-9
m2219 net19383 s92b vss! vss! nmos L=50e-9 W=210e-9
m2218 net20343 chal93 net19383 vss! nmos L=50e-9 W=210e-9
m2217 s93b net030133 vss! vss! nmos L=50e-9 W=415e-9
m2208 vss! chal93 net16587 vss! nmos L=50e-9 W=210e-9
m2206 s92b net030169 vss! vss! nmos L=50e-9 W=415e-9
m2202 net024066 s91a vss! vss! nmos L=50e-9 W=210e-9
m2201 net030169 chal92 net024066 vss! nmos L=50e-9 W=210e-9
m2199 net030169 net030189 net024077 vss! nmos L=50e-9 W=210e-9