** Generated for: hspiceD
** Generated on: Dec  2 15:52:43 2014
** Design library name: Project_658_copy
** Design cell name: 64stage_FF_PUF
** Design view name: schematic


.include '/home/akommini/658proj/nmos.inc'
.include '/home/akommini/658proj/pmos.inc'
vsupply vdd 0 0.5
vss vss 0 0
.vec '68stage2FFPUF1.vec'
.TEMP 25
.OPTION
+ POST=2
+ PROBE

** Library name: Project_658
** Cell name: Arbiter
** View name: schematic
.subckt Arbiter d1 d2 out vdd vss
**m12 _net0 _net1 vss vss nmos L=40e-9 W=90e-9
**m5 q out vss vss nmos L=40e-9 W=90e-9
m3 net5 d2 vss vss nmos L=40e-9 W=90e-9
m2 _net1 out net5 vss nmos L=40e-9 W=90e-9
m1 net4 d1 vss vss nmos L=40e-9 W=90e-9
m0 out _net1 net4 vss nmos L=40e-9 W=90e-9
**m11 _net0 _net1 vdd vdd pmos L=40e-9 W=180e-9
**m10 q out vdd vdd pmos L=40e-9 W=180e-9
m9 _net1 out vdd vdd pmos L=40e-9 W=180e-9
m8 _net1 d2 vdd vdd pmos L=40e-9 W=180e-9
m7 out _net1 vdd vdd pmos L=40e-9 W=180e-9
m6 out d1 vdd vdd pmos L=40e-9 W=180e-9
.ends Arbiter
** End of subcircuit definition.

** Library name: Project_658_copy
** Cell name: 64stage_FF_PUF
** View name: schematic
m2096 net04309 net04302 vdd vdd pmos L=40e-9 W=180e-9 DELVTO =0.167297
m2095 net04309 net03543 vdd vdd pmos L=40e-9 W=180e-9 DELVTO =0.005407
m2094 net04489 Sa62 vdd vdd pmos L=40e-9 W=180e-9 DELVTO =0.026293
m2093 net04489 net04482 vdd vdd pmos L=40e-9 W=180e-9 DELVTO =0.027689
m2092 net04519 net04512 vdd vdd pmos L=40e-9 W=180e-9 DELVTO =-0.007875
m2091 net04519 Sa63 vdd vdd pmos L=40e-9 W=180e-9 DELVTO =-0.128033
m2090 net04459 Sa61 vdd vdd pmos L=40e-9 W=180e-9 DELVTO =0.146402
m2089 net04459 net04452 vdd vdd pmos L=40e-9 W=180e-9 DELVTO =0.025137
m2088 net04429 Sa60 vdd vdd pmos L=40e-9 W=180e-9 DELVTO =-0.055604
m2087 net04429 net04422 vdd vdd pmos L=40e-9 W=180e-9 DELVTO =-0.015912
m2086 net04399 Sa59 vdd vdd pmos L=40e-9 W=180e-9 DELVTO =0.111567
m2085 net04399 net04392 vdd vdd pmos L=40e-9 W=180e-9 DELVTO =0.010864
m2084 net04369 Sa58 vdd vdd pmos L=40e-9 W=180e-9 DELVTO =0.012502
m2083 net04369 net04362 vdd vdd pmos L=40e-9 W=180e-9 DELVTO =-0.023641
m2082 net04339 Sa57 vdd vdd pmos L=40e-9 W=180e-9 DELVTO =-0.106749
m2081 net04339 net04332 vdd vdd pmos L=40e-9 W=180e-9 DELVTO =-0.049658
m2080 net04302 c57 vdd vdd pmos L=40e-9 W=180e-9 DELVTO =-0.060663
m2079 net04482 c63 vdd vdd pmos L=40e-9 W=180e-9 DELVTO =0.005004
m2078 net04512 c64 vdd vdd pmos L=40e-9 W=180e-9 DELVTO =0.010893
m2077 net04452 c62 vdd vdd pmos L=40e-9 W=180e-9 DELVTO =-0.012753
m2076 net04422 c61 vdd vdd pmos L=40e-9 W=180e-9 DELVTO =0.051171
m2075 net04392 c60 vdd vdd pmos L=40e-9 W=180e-9 DELVTO =-0.024330
m2074 net04362 c59 vdd vdd pmos L=40e-9 W=180e-9 DELVTO =0.016410
m2073 net04332 c58 vdd vdd pmos L=40e-9 W=180e-9 DELVTO =-0.060741
m2055 Sa57 net04309 vdd vdd pmos L=40e-9 W=180e-9 DELVTO =-0.068778
m2054 Sa57 net04311 vdd vdd pmos L=40e-9 W=180e-9 DELVTO =-0.020550
m2051 Sa63 net04491 vdd vdd pmos L=40e-9 W=180e-9 DELVTO =0.057713
m2050 Sa63 net04489 vdd vdd pmos L=40e-9 W=180e-9 DELVTO =0.013589
m2046 Sa64 net04521 vdd vdd pmos L=40e-9 W=180e-9 DELVTO =0.020838
m2045 Sa64 net04519 vdd vdd pmos L=40e-9 W=180e-9 DELVTO =-0.049709
m2042 Sa62 net04461 vdd vdd pmos L=40e-9 W=180e-9 DELVTO =-0.048137
m2041 Sa62 net04459 vdd vdd pmos L=40e-9 W=180e-9 DELVTO =0.040099
m2040 Sa61 net04431 vdd vdd pmos L=40e-9 W=180e-9 DELVTO =0.031165
m2039 Sa61 net04429 vdd vdd pmos L=40e-9 W=180e-9 DELVTO =-0.092817
m2038 Sa60 net04401 vdd vdd pmos L=40e-9 W=180e-9 DELVTO =-0.104991
m2037 Sa60 net04399 vdd vdd pmos L=40e-9 W=180e-9 DELVTO =0.071118
m2036 Sa59 net04371 vdd vdd pmos L=40e-9 W=180e-9 DELVTO =-0.001926
m2035 Sa59 net04369 vdd vdd pmos L=40e-9 W=180e-9 DELVTO =-0.011231
m2034 Sa58 net04341 vdd vdd pmos L=40e-9 W=180e-9 DELVTO =0.026518
m2033 Sa58 net04339 vdd vdd pmos L=40e-9 W=180e-9 DELVTO =-0.007501
m2021 net04311 net08593 vdd vdd pmos L=40e-9 W=180e-9 DELVTO =0.014898
m2020 net04311 c57 vdd vdd pmos L=40e-9 W=180e-9 DELVTO =0.032764
m2014 net04491 Sb62 vdd vdd pmos L=40e-9 W=180e-9 DELVTO =-0.113125
m2013 net04491 c63 vdd vdd pmos L=40e-9 W=180e-9 DELVTO =0.001032
m2012 net04521 Sb63 vdd vdd pmos L=40e-9 W=180e-9 DELVTO =-0.002644
m2011 net04521 c64 vdd vdd pmos L=40e-9 W=180e-9 DELVTO =0.028267
m2010 net04461 Sb61 vdd vdd pmos L=40e-9 W=180e-9 DELVTO =0.021368
m2009 net04461 c62 vdd vdd pmos L=40e-9 W=180e-9 DELVTO =-0.087018
m2008 net04431 Sb60 vdd vdd pmos L=40e-9 W=180e-9 DELVTO =0.009230
m2007 net04431 c61 vdd vdd pmos L=40e-9 W=180e-9 DELVTO =-0.069963
m2006 net04401 Sb59 vdd vdd pmos L=40e-9 W=180e-9 DELVTO =-0.024795
m2005 net04401 c60 vdd vdd pmos L=40e-9 W=180e-9 DELVTO =0.007391
m2004 net04371 Sb58 vdd vdd pmos L=40e-9 W=180e-9 DELVTO =0.066880
m2003 net04371 c59 vdd vdd pmos L=40e-9 W=180e-9 DELVTO =0.032536
m2002 net04341 Sb57 vdd vdd pmos L=40e-9 W=180e-9 DELVTO =0.018669
m2001 net04341 c58 vdd vdd pmos L=40e-9 W=180e-9 DELVTO =-0.099626
m1984 net04305 net08593 vdd vdd pmos L=40e-9 W=180e-9 DELVTO =0.007774
m1983 net04305 net04299 vdd vdd pmos L=40e-9 W=180e-9 DELVTO =0.082100
m1982 net04485 net04479 vdd vdd pmos L=40e-9 W=180e-9 DELVTO =-0.148091
m1981 net04485 Sb62 vdd vdd pmos L=40e-9 W=180e-9 DELVTO =0.032351
m1980 net04515 Sb63 vdd vdd pmos L=40e-9 W=180e-9 DELVTO =-0.172193
m1979 net04515 net04509 vdd vdd pmos L=40e-9 W=180e-9 DELVTO =-0.021340
m1978 net04395 net04389 vdd vdd pmos L=40e-9 W=180e-9 DELVTO =0.027876
m1977 net04395 Sb59 vdd vdd pmos L=40e-9 W=180e-9 DELVTO =-0.119405
m1976 net04425 Sb60 vdd vdd pmos L=40e-9 W=180e-9 DELVTO =0.053159
m1975 net04425 net04419 vdd vdd pmos L=40e-9 W=180e-9 DELVTO =0.014227
m1974 net04455 net04449 vdd vdd pmos L=40e-9 W=180e-9 DELVTO =0.067108
m1973 net04455 Sb61 vdd vdd pmos L=40e-9 W=180e-9 DELVTO =0.034078
m1972 net04335 Sb57 vdd vdd pmos L=40e-9 W=180e-9 DELVTO =-0.031213
m1971 net04335 net04329 vdd vdd pmos L=40e-9 W=180e-9 DELVTO =0.022797
m1970 net04365 Sb58 vdd vdd pmos L=40e-9 W=180e-9 DELVTO =-0.001407
m1969 net04365 net04359 vdd vdd pmos L=40e-9 W=180e-9 DELVTO =-0.132193
m1968 net04299 c57 vdd vdd pmos L=40e-9 W=180e-9 DELVTO =0.023685
m1967 net04479 c63 vdd vdd pmos L=40e-9 W=180e-9 DELVTO =0.023646
m1966 net04509 c64 vdd vdd pmos L=40e-9 W=180e-9 DELVTO =0.029703
m1965 net04389 c60 vdd vdd pmos L=40e-9 W=180e-9 DELVTO =0.007901
m1964 net04419 c61 vdd vdd pmos L=40e-9 W=180e-9 DELVTO =-0.008279
m1963 net04449 c62 vdd vdd pmos L=40e-9 W=180e-9 DELVTO =-0.188040
m1962 net04329 c58 vdd vdd pmos L=40e-9 W=180e-9 DELVTO =0.108385
m1961 net04359 c59 vdd vdd pmos L=40e-9 W=180e-9 DELVTO =-0.064707
m1943 Sb57 net04307 vdd vdd pmos L=40e-9 W=180e-9 DELVTO =-0.050428
m1942 Sb57 net04305 vdd vdd pmos L=40e-9 W=180e-9 DELVTO =0.058345
m1936 Sb63 net04485 vdd vdd pmos L=40e-9 W=180e-9 DELVTO =-0.039654
m1935 Sb63 net04487 vdd vdd pmos L=40e-9 W=180e-9 DELVTO =-0.069941
m1934 Sb64 net04515 vdd vdd pmos L=40e-9 W=180e-9 DELVTO =0.044889
m1933 Sb64 net04517 vdd vdd pmos L=40e-9 W=180e-9 DELVTO =-0.017777
m1930 Sb60 net04395 vdd vdd pmos L=40e-9 W=180e-9 DELVTO =-0.078519
m1929 Sb60 net04397 vdd vdd pmos L=40e-9 W=180e-9 DELVTO =0.115355
m1928 Sb61 net04427 vdd vdd pmos L=40e-9 W=180e-9 DELVTO =-0.021467
m1927 Sb61 net04425 vdd vdd pmos L=40e-9 W=180e-9 DELVTO =-0.054183
m1926 Sb62 net04455 vdd vdd pmos L=40e-9 W=180e-9 DELVTO =-0.094797
m1925 Sb62 net04457 vdd vdd pmos L=40e-9 W=180e-9 DELVTO =-0.022815
m1924 Sb58 net04337 vdd vdd pmos L=40e-9 W=180e-9 DELVTO =0.108725
m1923 Sb58 net04335 vdd vdd pmos L=40e-9 W=180e-9 DELVTO =0.043969
m1922 Sb59 net04367 vdd vdd pmos L=40e-9 W=180e-9 DELVTO =-0.071928
m1921 Sb59 net04365 vdd vdd pmos L=40e-9 W=180e-9 DELVTO =-0.014136
m1909 net04307 net03543 vdd vdd pmos L=40e-9 W=180e-9 DELVTO =0.060275
m1908 net04307 c57 vdd vdd pmos L=40e-9 W=180e-9 DELVTO =0.109071
m1902 net04487 c63 vdd vdd pmos L=40e-9 W=180e-9 DELVTO =-0.009078
m1901 net04487 Sa62 vdd vdd pmos L=40e-9 W=180e-9 DELVTO =-0.057244
m1900 net04517 Sa63 vdd vdd pmos L=40e-9 W=180e-9 DELVTO =0.020195
m1899 net04517 c64 vdd vdd pmos L=40e-9 W=180e-9 DELVTO =-0.079197
m1898 net04397 c60 vdd vdd pmos L=40e-9 W=180e-9 DELVTO =0.061692
m1897 net04397 Sa59 vdd vdd pmos L=40e-9 W=180e-9 DELVTO =-0.066095
m1896 net04427 Sa60 vdd vdd pmos L=40e-9 W=180e-9 DELVTO =-0.043511
m1895 net04427 c61 vdd vdd pmos L=40e-9 W=180e-9 DELVTO =-0.139374
m1894 net04457 c62 vdd vdd pmos L=40e-9 W=180e-9 DELVTO =-0.066637
m1872 net03549 Sa64 vdd vdd pmos L=40e-9 W=180e-9 DELVTO =0.018056
m1871 net03549 net03542 vdd vdd pmos L=40e-9 W=180e-9 DELVTO =0.083874
m1870 net03542 net05098 vdd vdd pmos L=40e-9 W=180e-9 DELVTO =0.077628
m1866 net03559 net03551 vdd vdd pmos L=40e-9 W=180e-9 DELVTO =-0.112887
m1865 net03559 net03549 vdd vdd pmos L=40e-9 W=180e-9 DELVTO =-0.024964
m1862 net03551 Sb64 vdd vdd pmos L=40e-9 W=180e-9 DELVTO =-0.000603
m1861 net03551 net05098 vdd vdd pmos L=40e-9 W=180e-9 DELVTO =-0.001023
m1858 net03545 Sb64 vdd vdd pmos L=40e-9 W=180e-9 DELVTO =0.015196
m1857 net03545 net03539 vdd vdd pmos L=40e-9 W=180e-9 DELVTO =0.012613
m1856 net03539 net05098 vdd vdd pmos L=40e-9 W=180e-9 DELVTO =-0.036436
m1852 net03557 net03547 vdd vdd pmos L=40e-9 W=180e-9 DELVTO =-0.016771
m1851 net03557 net03545 vdd vdd pmos L=40e-9 W=180e-9 DELVTO =-0.048511
m1848 net03547 Sa64 vdd vdd pmos L=40e-9 W=180e-9 DELVTO =-0.047944
m1847 net03547 net05098 vdd vdd pmos L=40e-9 W=180e-9 DELVTO =0.065282
m1844 net08551 Sa55 vdd vdd pmos L=40e-9 W=180e-9 DELVTO =-0.084599
m1843 net08582 net08575 vdd vdd pmos L=40e-9 W=180e-9 DELVTO =-0.025255
m1842 net08582 Sa56 vdd vdd pmos L=40e-9 W=180e-9 DELVTO =-0.082766
m1841 net08551 net08544 vdd vdd pmos L=40e-9 W=180e-9 DELVTO =0.045126
m1840 net08575 net08884 vdd vdd pmos L=40e-9 W=180e-9 DELVTO =-0.076218
m1839 net08544 c56 vdd vdd pmos L=40e-9 W=180e-9 DELVTO =-0.118893
m1832 Sa56 net08551 vdd vdd pmos L=40e-9 W=180e-9 DELVTO =-0.090325
m1831 Sa56 net08553 vdd vdd pmos L=40e-9 W=180e-9 DELVTO =0.038194
m1830 net03543 net08582 vdd vdd pmos L=40e-9 W=180e-9 DELVTO =0.149474
m1829 net03543 net08584 vdd vdd pmos L=40e-9 W=180e-9 DELVTO =-0.040380
m1826 net08270 Sa47 vdd vdd pmos L=40e-9 W=180e-9 DELVTO =0.057763
m1825 net08332 net08326 vdd vdd pmos L=40e-9 W=180e-9 DELVTO =0.112917
m1824 net08301 Sa48 vdd vdd pmos L=40e-9 W=180e-9 DELVTO =0.085115
m1823 net08301 net08294 vdd vdd pmos L=40e-9 W=180e-9 DELVTO =0.112974
m1822 net08332 net08325 vdd vdd pmos L=40e-9 W=180e-9 DELVTO =-0.041996
m1821 net08270 net08263 vdd vdd pmos L=40e-9 W=180e-9 DELVTO =0.072806
m1820 net08115 Sa42 vdd vdd pmos L=40e-9 W=180e-9 DELVTO =-0.017108
m1819 net08115 net08108 vdd vdd pmos L=40e-9 W=180e-9 DELVTO =-0.103955
m1818 net08146 Sa43 vdd vdd pmos L=40e-9 W=180e-9 DELVTO =-0.024933
m1817 net08146 net08139 vdd vdd pmos L=40e-9 W=180e-9 DELVTO =0.024817
m1816 net08177 net08170 vdd vdd pmos L=40e-9 W=180e-9 DELVTO =0.128444
m1815 net08177 Sa44 vdd vdd pmos L=40e-9 W=180e-9 DELVTO =0.062838
m1814 net08239 Sa46 vdd vdd pmos L=40e-9 W=180e-9 DELVTO =0.017661
m1813 net08208 Sa45 vdd vdd pmos L=40e-9 W=180e-9 DELVTO =0.068882
m1812 net08208 net08201 vdd vdd pmos L=40e-9 W=180e-9 DELVTO =-0.036019
m1811 net08239 net08232 vdd vdd pmos L=40e-9 W=180e-9 DELVTO =-0.091746
m1810 net08082 Sa41 vdd vdd pmos L=40e-9 W=180e-9 DELVTO =-0.048112
m1809 net08082 net08075 vdd vdd pmos L=40e-9 W=180e-9 DELVTO =-0.082983
m1808 net08520 net08513 vdd vdd pmos L=40e-9 W=180e-9 DELVTO =0.068767
m1807 net08520 Sa54 vdd vdd pmos L=40e-9 W=180e-9 DELVTO =-0.009474
m1806 net08365 net08358 vdd vdd pmos L=40e-9 W=180e-9 DELVTO =-0.083303
m1805 net08365 Sa49 vdd vdd pmos L=40e-9 W=180e-9 DELVTO =-0.014512
m1804 net08396 net08389 vdd vdd pmos L=40e-9 W=180e-9 DELVTO =-0.059193
m1803 net08396 Sa50 vdd vdd pmos L=40e-9 W=180e-9 DELVTO =-0.022001
m1802 net08427 net08420 vdd vdd pmos L=40e-9 W=180e-9 DELVTO =0.099700
m1801 net08427 Sa51 vdd vdd pmos L=40e-9 W=180e-9 DELVTO =0.104403
m1800 net08458 net08451 vdd vdd pmos L=40e-9 W=180e-9 DELVTO =-0.052083
m1799 net08458 Sa52 vdd vdd pmos L=40e-9 W=180e-9 DELVTO =-0.026206
m1798 net08489 net08482 vdd vdd pmos L=40e-9 W=180e-9 DELVTO =0.029687
m1797 net08489 Sa53 vdd vdd pmos L=40e-9 W=180e-9 DELVTO =0.007988
m1796 net08263 c48 vdd vdd pmos L=40e-9 W=180e-9 DELVTO =-0.035777
m1795 net08294 net08868 vdd vdd pmos L=40e-9 W=180e-9 DELVTO =0.071564
m1794 net08325 c49 vdd vdd pmos L=40e-9 W=180e-9 DELVTO =-0.099343
m1793 net08108 c43 vdd vdd pmos L=40e-9 W=180e-9 DELVTO =0.178268
m1792 net08139 c44 vdd vdd pmos L=40e-9 W=180e-9 DELVTO =-0.025057
m1791 net08170 c45 vdd vdd pmos L=40e-9 W=180e-9 DELVTO =0.028092
m1790 net08201 c46 vdd vdd pmos L=40e-9 W=180e-9 DELVTO =-0.049434
m1789 net08232 c47 vdd vdd pmos L=40e-9 W=180e-9 DELVTO =-0.071446
m1788 net08075 c42 vdd vdd pmos L=40e-9 W=180e-9 DELVTO =0.079377
m1787 net08513 c55 vdd vdd pmos L=40e-9 W=180e-9 DELVTO =0.002698
m1786 net08358 c50 vdd vdd pmos L=40e-9 W=180e-9 DELVTO =0.016164
m1785 net08389 c51 vdd vdd pmos L=40e-9 W=180e-9 DELVTO =0.008801
m1784 net08420 c52 vdd vdd pmos L=40e-9 W=180e-9 DELVTO =0.048740
m1783 net08451 c53 vdd vdd pmos L=40e-9 W=180e-9 DELVTO =0.121763
m1782 net08482 c54 vdd vdd pmos L=40e-9 W=180e-9 DELVTO =0.046576
m1743 Sa49 net08334 vdd vdd pmos L=40e-9 W=180e-9 DELVTO =0.048127
m1742 Sa48 net08270 vdd vdd pmos L=40e-9 W=180e-9 DELVTO =0.086728
m1741 Sa48 net08272 vdd vdd pmos L=40e-9 W=180e-9 DELVTO =0.062906
m1740 net08326 net08303 vdd vdd pmos L=40e-9 W=180e-9 DELVTO =-0.080507
m1739 net08326 net08301 vdd vdd pmos L=40e-9 W=180e-9 DELVTO =-0.018493
m1738 Sa49 net08332 vdd vdd pmos L=40e-9 W=180e-9 DELVTO =-0.113763
m1736 Sa43 net08117 vdd vdd pmos L=40e-9 W=180e-9 DELVTO =0.040715
m1735 Sa43 net08115 vdd vdd pmos L=40e-9 W=180e-9 DELVTO =0.133174
m1734 Sa44 net08148 vdd vdd pmos L=40e-9 W=180e-9 DELVTO =0.110607
m1733 Sa44 net08146 vdd vdd pmos L=40e-9 W=180e-9 DELVTO =0.064472
m1732 Sa45 net08177 vdd vdd pmos L=40e-9 W=180e-9 DELVTO =-0.065653
m1731 Sa45 net08179 vdd vdd pmos L=40e-9 W=180e-9 DELVTO =-0.051603
m1730 Sa46 net08210 vdd vdd pmos L=40e-9 W=180e-9 DELVTO =0.012585
m1729 Sa46 net08208 vdd vdd pmos L=40e-9 W=180e-9 DELVTO =-0.009228
m1728 Sa47 net08239 vdd vdd pmos L=40e-9 W=180e-9 DELVTO =0.060755
m1727 Sa47 net08241 vdd vdd pmos L=40e-9 W=180e-9 DELVTO =0.092007
m1726 Sa42 net08084 vdd vdd pmos L=40e-9 W=180e-9 DELVTO =-0.017578
m1725 Sa42 net08082 vdd vdd pmos L=40e-9 W=180e-9 DELVTO =-0.005023
m1718 Sa55 net08520 vdd vdd pmos L=40e-9 W=180e-9 DELVTO =0.076665
m1717 Sa55 net08522 vdd vdd pmos L=40e-9 W=180e-9 DELVTO =0.034250
m1716 Sa50 net08365 vdd vdd pmos L=40e-9 W=180e-9 DELVTO =-0.117611
m1715 Sa50 net08367 vdd vdd pmos L=40e-9 W=180e-9 DELVTO =-0.056807
m1714 Sa51 net08396 vdd vdd pmos L=40e-9 W=180e-9 DELVTO =-0.052656
m1713 Sa51 net08398 vdd vdd pmos L=40e-9 W=180e-9 DELVTO =-0.092814
m1712 Sa52 net08427 vdd vdd pmos L=40e-9 W=180e-9 DELVTO =-0.012704
m1711 Sa52 net08429 vdd vdd pmos L=40e-9 W=180e-9 DELVTO =0.009199
m1710 Sa53 net08458 vdd vdd pmos L=40e-9 W=180e-9 DELVTO =0.097568
m1709 Sa53 net08460 vdd vdd pmos L=40e-9 W=180e-9 DELVTO =0.049435
m1708 Sa54 net08489 vdd vdd pmos L=40e-9 W=180e-9 DELVTO =0.081399
m1707 Sa54 net08491 vdd vdd pmos L=40e-9 W=180e-9 DELVTO =-0.052758
m1688 net07832 net07825 vdd vdd pmos L=40e-9 W=180e-9 DELVTO =0.022535
m1687 net07801 net07794 vdd vdd pmos L=40e-9 W=180e-9 DELVTO =0.114499
m1686 net07801 Sa33 vdd vdd pmos L=40e-9 W=180e-9 DELVTO =-0.045346
m1685 net07832 Sa34 vdd vdd pmos L=40e-9 W=180e-9 DELVTO =0.047128
m1684 net07770 net07764 vdd vdd pmos L=40e-9 W=180e-9 DELVTO =0.089149
m1683 net07770 net07763 vdd vdd pmos L=40e-9 W=180e-9 DELVTO =-0.072787
m1682 net07739 net07732 vdd vdd pmos L=40e-9 W=180e-9 DELVTO =0.034157
m1681 net07708 net07701 vdd vdd pmos L=40e-9 W=180e-9 DELVTO =-0.063473
m1680 net07708 Sa31 vdd vdd pmos L=40e-9 W=180e-9 DELVTO =-0.033229
m1679 net07739 Sa32 vdd vdd pmos L=40e-9 W=180e-9 DELVTO =-0.046626
m1678 net07677 Sa30 vdd vdd pmos L=40e-9 W=180e-9 DELVTO =-0.035141
m1677 net07677 net07670 vdd vdd pmos L=40e-9 W=180e-9 DELVTO =-0.021622
m1676 net07646 net07639 vdd vdd pmos L=40e-9 W=180e-9 DELVTO =-0.058583
m1675 net07646 Sa29 vdd vdd pmos L=40e-9 W=180e-9 DELVTO =-0.043983
m1674 net07615 net07608 vdd vdd pmos L=40e-9 W=180e-9 DELVTO =0.035063
m1673 net07615 Sa28 vdd vdd pmos L=40e-9 W=180e-9 DELVTO =0.116918
m1672 net08051 net08045 vdd vdd pmos L=40e-9 W=180e-9 DELVTO =-0.107921
m1671 net08051 net08044 vdd vdd pmos L=40e-9 W=180e-9 DELVTO =-0.019041
m1670 net08020 Sa40 vdd vdd pmos L=40e-9 W=180e-9 DELVTO =0.023915
m1669 net08020 net08013 vdd vdd pmos L=40e-9 W=180e-9 DELVTO =0.033906
m1668 net07989 Sa39 vdd vdd pmos L=40e-9 W=180e-9 DELVTO =0.066688
m1667 net07989 net07982 vdd vdd pmos L=40e-9 W=180e-9 DELVTO =0.009195
m1666 net07958 Sa38 vdd vdd pmos L=40e-9 W=180e-9 DELVTO =-0.121934
m1665 net07958 net07951 vdd vdd pmos L=40e-9 W=180e-9 DELVTO =0.046743
m1664 net07927 Sa37 vdd vdd pmos L=40e-9 W=180e-9 DELVTO =0.062871
m1663 net07927 net07920 vdd vdd pmos L=40e-9 W=180e-9 DELVTO =-0.038452
m1662 net07896 Sa36 vdd vdd pmos L=40e-9 W=180e-9 DELVTO =-0.022225
m1661 net07896 net07889 vdd vdd pmos L=40e-9 W=180e-9 DELVTO =-0.040789
m1660 net07865 Sa35 vdd vdd pmos L=40e-9 W=180e-9 DELVTO =-0.011495
m1659 net07865 net07858 vdd vdd pmos L=40e-9 W=180e-9 DELVTO =-0.065459
m1658 net07825 c35 vdd vdd pmos L=40e-9 W=180e-9 DELVTO =0.083168
m1657 net07794 c34 vdd vdd pmos L=40e-9 W=180e-9 DELVTO =-0.084895
m1656 net07763 c33 vdd vdd pmos L=40e-9 W=180e-9 DELVTO =-0.026682
m1655 net07732 net08836 vdd vdd pmos L=40e-9 W=180e-9 DELVTO =0.092586
m1654 net07701 c32 vdd vdd pmos L=40e-9 W=180e-9 DELVTO =0.026974
m1653 net07670 c31 vdd vdd pmos L=40e-9 W=180e-9 DELVTO =-0.025328
m1652 net07639 c30 vdd vdd pmos L=40e-9 W=180e-9 DELVTO =-0.029846
m1651 net07608 c29 vdd vdd pmos L=40e-9 W=180e-9 DELVTO =0.027100
m1650 net08044 c41 vdd vdd pmos L=40e-9 W=180e-9 DELVTO =0.063194
m1649 net08013 net08852 vdd vdd pmos L=40e-9 W=180e-9 DELVTO =0.050244
m1648 net07982 c40 vdd vdd pmos L=40e-9 W=180e-9 DELVTO =0.121526
m1647 net07951 c39 vdd vdd pmos L=40e-9 W=180e-9 DELVTO =-0.070618
m1646 net07920 c38 vdd vdd pmos L=40e-9 W=180e-9 DELVTO =-0.012603
m1645 net07889 c37 vdd vdd pmos L=40e-9 W=180e-9 DELVTO =-0.141858
m1644 net07858 c36 vdd vdd pmos L=40e-9 W=180e-9 DELVTO =0.028626
m1610 Sa35 net07832 vdd vdd pmos L=40e-9 W=180e-9 DELVTO =0.051403
m1609 Sa34 net07801 vdd vdd pmos L=40e-9 W=180e-9 DELVTO =0.005738
m1608 Sa34 net07803 vdd vdd pmos L=40e-9 W=180e-9 DELVTO =-0.118056
m1607 Sa33 net07772 vdd vdd pmos L=40e-9 W=180e-9 DELVTO =-0.144320
m1606 Sa33 net07770 vdd vdd pmos L=40e-9 W=180e-9 DELVTO =0.127466
m1605 Sa35 net07834 vdd vdd pmos L=40e-9 W=180e-9 DELVTO =-0.087439
m1599 net07764 net07741 vdd vdd pmos L=40e-9 W=180e-9 DELVTO =0.065542
m1598 net07764 net07739 vdd vdd pmos L=40e-9 W=180e-9 DELVTO =-0.012009
m1597 Sa32 net07708 vdd vdd pmos L=40e-9 W=180e-9 DELVTO =-0.005486
m1596 Sa32 net07710 vdd vdd pmos L=40e-9 W=180e-9 DELVTO =-0.042726
m1595 Sa31 net07679 vdd vdd pmos L=40e-9 W=180e-9 DELVTO =0.039821
m1594 Sa31 net07677 vdd vdd pmos L=40e-9 W=180e-9 DELVTO =-0.011004
m1593 Sa30 net07646 vdd vdd pmos L=40e-9 W=180e-9 DELVTO =-0.074795
m1592 Sa30 net07648 vdd vdd pmos L=40e-9 W=180e-9 DELVTO =-0.021877
m1591 Sa29 net07615 vdd vdd pmos L=40e-9 W=180e-9 DELVTO =-0.001199
m1590 Sa29 net07617 vdd vdd pmos L=40e-9 W=180e-9 DELVTO =-0.009263
m1587 Sa41 net08053 vdd vdd pmos L=40e-9 W=180e-9 DELVTO =0.031128
m1586 Sa41 net08051 vdd vdd pmos L=40e-9 W=180e-9 DELVTO =0.028122
m1585 net08045 net08022 vdd vdd pmos L=40e-9 W=180e-9 DELVTO =-0.175993
m1584 net08045 net08020 vdd vdd pmos L=40e-9 W=180e-9 DELVTO =-0.055194
m1578 Sa40 net07991 vdd vdd pmos L=40e-9 W=180e-9 DELVTO =-0.007981
m1577 Sa40 net07989 vdd vdd pmos L=40e-9 W=180e-9 DELVTO =0.033190
m1576 Sa39 net07960 vdd vdd pmos L=40e-9 W=180e-9 DELVTO =0.047944
m1575 Sa39 net07958 vdd vdd pmos L=40e-9 W=180e-9 DELVTO =0.037784
m1574 Sa38 net07929 vdd vdd pmos L=40e-9 W=180e-9 DELVTO =-0.026631
m1573 Sa38 net07927 vdd vdd pmos L=40e-9 W=180e-9 DELVTO =0.101014
m1572 Sa37 net07898 vdd vdd pmos L=40e-9 W=180e-9 DELVTO =-0.056651
m1571 Sa37 net07896 vdd vdd pmos L=40e-9 W=180e-9 DELVTO =-0.102986
m1570 Sa36 net07867 vdd vdd pmos L=40e-9 W=180e-9 DELVTO =0.029780
m1569 Sa36 net07865 vdd vdd pmos L=40e-9 W=180e-9 DELVTO =0.067493
m1543 net08553 c56 vdd vdd pmos L=40e-9 W=180e-9 DELVTO =0.067929
m1542 net08553 Sb55 vdd vdd pmos L=40e-9 W=180e-9 DELVTO =0.036562
m1541 net08584 net08884 vdd vdd pmos L=40e-9 W=180e-9 DELVTO =0.061235
m1540 net08584 Sb56 vdd vdd pmos L=40e-9 W=180e-9 DELVTO =0.011065
m1535 net08547 net08541 vdd vdd pmos L=40e-9 W=180e-9 DELVTO =0.109598
m1534 net08547 Sb55 vdd vdd pmos L=40e-9 W=180e-9 DELVTO =0.094693
m1533 net08578 Sb56 vdd vdd pmos L=40e-9 W=180e-9 DELVTO =0.006477
m1532 net08578 net08572 vdd vdd pmos L=40e-9 W=180e-9 DELVTO =0.054777
m1531 net08572 net08884 vdd vdd pmos L=40e-9 W=180e-9 DELVTO =0.077702
m1530 net08541 c56 vdd vdd pmos L=40e-9 W=180e-9 DELVTO =0.104996
m1523 Sb56 net08549 vdd vdd pmos L=40e-9 W=180e-9 DELVTO =-0.009267
m1522 net08593 net08580 vdd vdd pmos L=40e-9 W=180e-9 DELVTO =0.088046
m1521 net08593 net08578 vdd vdd pmos L=40e-9 W=180e-9 DELVTO =0.076530
m1520 Sb56 net08547 vdd vdd pmos L=40e-9 W=180e-9 DELVTO =0.068265
m1513 net08272 c48 vdd vdd pmos L=40e-9 W=180e-9 DELVTO =0.084020
m1512 net08272 Sb47 vdd vdd pmos L=40e-9 W=180e-9 DELVTO =-0.007510
m1511 net08303 Sb48 vdd vdd pmos L=40e-9 W=180e-9 DELVTO =0.043365
m1510 net08303 net08868 vdd vdd pmos L=40e-9 W=180e-9 DELVTO =0.076368
m1509 net08334 c49 vdd vdd pmos L=40e-9 W=180e-9 DELVTO =-0.030942
m1508 net08334 net08309 vdd vdd pmos L=40e-9 W=180e-9 DELVTO =-0.089656
m1506 net08117 Sb42 vdd vdd pmos L=40e-9 W=180e-9 DELVTO =0.046115
m1505 net08117 c43 vdd vdd pmos L=40e-9 W=180e-9 DELVTO =0.014072
m1504 net08148 Sb43 vdd vdd pmos L=40e-9 W=180e-9 DELVTO =0.031501
m1503 net08148 c44 vdd vdd pmos L=40e-9 W=180e-9 DELVTO =-0.000915
m1502 net08179 c45 vdd vdd pmos L=40e-9 W=180e-9 DELVTO =-0.059254
m1501 net08179 Sb44 vdd vdd pmos L=40e-9 W=180e-9 DELVTO =0.033790
m1500 net08210 Sb45 vdd vdd pmos L=40e-9 W=180e-9 DELVTO =0.065318
m1499 net08210 c46 vdd vdd pmos L=40e-9 W=180e-9 DELVTO =0.020419
m1498 net08241 c47 vdd vdd pmos L=40e-9 W=180e-9 DELVTO =-0.014938
m1497 net08241 Sb46 vdd vdd pmos L=40e-9 W=180e-9 DELVTO =-0.002849
m1491 net08084 Sb41 vdd vdd pmos L=40e-9 W=180e-9 DELVTO =-0.015962
m1490 net08084 c42 vdd vdd pmos L=40e-9 W=180e-9 DELVTO =-0.096677
m1489 net08522 c55 vdd vdd pmos L=40e-9 W=180e-9 DELVTO =0.018554
m1488 net08522 Sb54 vdd vdd pmos L=40e-9 W=180e-9 DELVTO =0.074345
m1487 net08367 c50 vdd vdd pmos L=40e-9 W=180e-9 DELVTO =0.004098
m1486 net08367 Sb49 vdd vdd pmos L=40e-9 W=180e-9 DELVTO =-0.039522
m1485 net08398 c51 vdd vdd pmos L=40e-9 W=180e-9 DELVTO =0.046386
m1484 net08398 Sb50 vdd vdd pmos L=40e-9 W=180e-9 DELVTO =0.084635
m1483 net08429 c52 vdd vdd pmos L=40e-9 W=180e-9 DELVTO =0.031838
m1482 net08429 Sb51 vdd vdd pmos L=40e-9 W=180e-9 DELVTO =0.034550
m1481 net08460 c53 vdd vdd pmos L=40e-9 W=180e-9 DELVTO =0.015513
m1480 net08460 Sb52 vdd vdd pmos L=40e-9 W=180e-9 DELVTO =-0.040225
m1479 net08491 c54 vdd vdd pmos L=40e-9 W=180e-9 DELVTO =0.009259
m1478 net08491 Sb53 vdd vdd pmos L=40e-9 W=180e-9 DELVTO =0.079005
m1447 net08266 net08260 vdd vdd pmos L=40e-9 W=180e-9 DELVTO =-0.003920
m1446 net08266 Sb47 vdd vdd pmos L=40e-9 W=180e-9 DELVTO =0.049439
m1445 net08297 Sb48 vdd vdd pmos L=40e-9 W=180e-9 DELVTO =-0.004239
m1444 net08297 net08291 vdd vdd pmos L=40e-9 W=180e-9 DELVTO =0.041317
m1443 net08328 net08322 vdd vdd pmos L=40e-9 W=180e-9 DELVTO =-0.043373
m1442 net08328 net08309 vdd vdd pmos L=40e-9 W=180e-9 DELVTO =-0.083320
m1441 net08111 Sb42 vdd vdd pmos L=40e-9 W=180e-9 DELVTO =-0.170475
m1440 net08111 net08105 vdd vdd pmos L=40e-9 W=180e-9 DELVTO =0.051240
m1439 net08142 Sb43 vdd vdd pmos L=40e-9 W=180e-9 DELVTO =0.024277
m1438 net08142 net08136 vdd vdd pmos L=40e-9 W=180e-9 DELVTO =0.050966
m1437 net08173 net08167 vdd vdd pmos L=40e-9 W=180e-9 DELVTO =0.039981
m1436 net08173 Sb44 vdd vdd pmos L=40e-9 W=180e-9 DELVTO =-0.124430
m1435 net08204 Sb45 vdd vdd pmos L=40e-9 W=180e-9 DELVTO =0.007237
m1434 net08204 net08198 vdd vdd pmos L=40e-9 W=180e-9 DELVTO =0.135439
m1433 net08235 net08229 vdd vdd pmos L=40e-9 W=180e-9 DELVTO =0.065147
m1432 net08235 Sb46 vdd vdd pmos L=40e-9 W=180e-9 DELVTO =-0.010558
m1431 net08078 net08072 vdd vdd pmos L=40e-9 W=180e-9 DELVTO =-0.032774
m1430 net08078 Sb41 vdd vdd pmos L=40e-9 W=180e-9 DELVTO =-0.025570
m1429 net08516 Sb54 vdd vdd pmos L=40e-9 W=180e-9 DELVTO =0.018069
m1428 net08516 net08510 vdd vdd pmos L=40e-9 W=180e-9 DELVTO =0.012975
m1427 net08485 Sb53 vdd vdd pmos L=40e-9 W=180e-9 DELVTO =-0.062620
m1426 net08485 net08479 vdd vdd pmos L=40e-9 W=180e-9 DELVTO =-0.031810
m1425 net08454 net08448 vdd vdd pmos L=40e-9 W=180e-9 DELVTO =-0.019811
m1424 net08454 Sb52 vdd vdd pmos L=40e-9 W=180e-9 DELVTO =0.076755
m1423 net08423 Sb51 vdd vdd pmos L=40e-9 W=180e-9 DELVTO =0.071246
m1422 net08423 net08417 vdd vdd pmos L=40e-9 W=180e-9 DELVTO =0.021179
m1421 net08392 net08386 vdd vdd pmos L=40e-9 W=180e-9 DELVTO =-0.088265
m1420 net08392 Sb50 vdd vdd pmos L=40e-9 W=180e-9 DELVTO =0.016811
m1419 net08361 net08355 vdd vdd pmos L=40e-9 W=180e-9 DELVTO =0.054841
m1418 net08361 Sb49 vdd vdd pmos L=40e-9 W=180e-9 DELVTO =-0.013511
m1417 net08260 c48 vdd vdd pmos L=40e-9 W=180e-9 DELVTO =-0.091491
m1416 net08291 net08868 vdd vdd pmos L=40e-9 W=180e-9 DELVTO =-0.053592
m1415 net08322 c49 vdd vdd pmos L=40e-9 W=180e-9 DELVTO =0.054779
m1414 net08105 c43 vdd vdd pmos L=40e-9 W=180e-9 DELVTO =-0.004806
m1413 net08136 c44 vdd vdd pmos L=40e-9 W=180e-9 DELVTO =0.026825
m1412 net08167 c45 vdd vdd pmos L=40e-9 W=180e-9 DELVTO =0.021800
m1411 net08198 c46 vdd vdd pmos L=40e-9 W=180e-9 DELVTO =0.052644
m1410 net08229 c47 vdd vdd pmos L=40e-9 W=180e-9 DELVTO =0.067003
m1409 net08072 c42 vdd vdd pmos L=40e-9 W=180e-9 DELVTO =0.030905
m1408 net08510 c55 vdd vdd pmos L=40e-9 W=180e-9 DELVTO =0.038720
m1407 net08479 c54 vdd vdd pmos L=40e-9 W=180e-9 DELVTO =0.025703
m1406 net08448 c53 vdd vdd pmos L=40e-9 W=180e-9 DELVTO =-0.080129
m1405 net08417 c52 vdd vdd pmos L=40e-9 W=180e-9 DELVTO =0.064924
m1404 net08386 c51 vdd vdd pmos L=40e-9 W=180e-9 DELVTO =0.073341
m1403 net08355 c50 vdd vdd pmos L=40e-9 W=180e-9 DELVTO =0.023037
m1364 Sb48 net08266 vdd vdd pmos L=40e-9 W=180e-9 DELVTO =-0.016777
m1363 Sb48 net08268 vdd vdd pmos L=40e-9 W=180e-9 DELVTO =-0.039749
m1362 net08309 net08299 vdd vdd pmos L=40e-9 W=180e-9 DELVTO =-0.109523
m1361 net08309 net08297 vdd vdd pmos L=40e-9 W=180e-9 DELVTO =0.002080
m1360 Sb49 net08328 vdd vdd pmos L=40e-9 W=180e-9 DELVTO =0.042502
m1359 Sb49 net08330 vdd vdd pmos L=40e-9 W=180e-9 DELVTO =0.067220
m1357 Sb43 net08111 vdd vdd pmos L=40e-9 W=180e-9 DELVTO =-0.008788
m1356 Sb44 net08144 vdd vdd pmos L=40e-9 W=180e-9 DELVTO =-0.033779
m1355 Sb44 net08142 vdd vdd pmos L=40e-9 W=180e-9 DELVTO =0.120429
m1354 Sb45 net08173 vdd vdd pmos L=40e-9 W=180e-9 DELVTO =0.119814
m1353 Sb45 net08175 vdd vdd pmos L=40e-9 W=180e-9 DELVTO =0.167437
m1352 Sb46 net08206 vdd vdd pmos L=40e-9 W=180e-9 DELVTO =-0.065607
m1351 Sb46 net08204 vdd vdd pmos L=40e-9 W=180e-9 DELVTO =-0.089869
m1350 Sb47 net08235 vdd vdd pmos L=40e-9 W=180e-9 DELVTO =0.011382
m1349 Sb47 net08237 vdd vdd pmos L=40e-9 W=180e-9 DELVTO =0.027232
m1348 Sb43 net08113 vdd vdd pmos L=40e-9 W=180e-9 DELVTO =0.047950
m1347 Sb42 net08078 vdd vdd pmos L=40e-9 W=180e-9 DELVTO =-0.034427
m1346 Sb42 net08080 vdd vdd pmos L=40e-9 W=180e-9 DELVTO =-0.013916
m1344 Sb55 net08518 vdd vdd pmos L=40e-9 W=180e-9 DELVTO =-0.021581
m1343 Sb55 net08516 vdd vdd pmos L=40e-9 W=180e-9 DELVTO =-0.137970
m1337 Sb54 net08487 vdd vdd pmos L=40e-9 W=180e-9 DELVTO =-0.057549
m1336 Sb54 net08485 vdd vdd pmos L=40e-9 W=180e-9 DELVTO =0.004713
m1335 Sb53 net08454 vdd vdd pmos L=40e-9 W=180e-9 DELVTO =-0.029094
m1334 Sb53 net08456 vdd vdd pmos L=40e-9 W=180e-9 DELVTO =0.058926
m1333 Sb52 net08425 vdd vdd pmos L=40e-9 W=180e-9 DELVTO =0.041545
m1332 Sb52 net08423 vdd vdd pmos L=40e-9 W=180e-9 DELVTO =0.020931
m1331 Sb51 net08392 vdd vdd pmos L=40e-9 W=180e-9 DELVTO =0.043423
m1330 Sb51 net08394 vdd vdd pmos L=40e-9 W=180e-9 DELVTO =0.143832
m1329 Sb50 net08361 vdd vdd pmos L=40e-9 W=180e-9 DELVTO =-0.017626
m1328 Sb50 net08363 vdd vdd pmos L=40e-9 W=180e-9 DELVTO =0.186451
m1325 net07834 Sb34 vdd vdd pmos L=40e-9 W=180e-9 DELVTO =0.130048
m1324 net07834 c35 vdd vdd pmos L=40e-9 W=180e-9 DELVTO =0.088530
m1323 net07803 c34 vdd vdd pmos L=40e-9 W=180e-9 DELVTO =-0.137819
m1322 net07803 Sb33 vdd vdd pmos L=40e-9 W=180e-9 DELVTO =-0.039544
m1321 net07772 net07747 vdd vdd pmos L=40e-9 W=180e-9 DELVTO =-0.092205
m1320 net07772 c33 vdd vdd pmos L=40e-9 W=180e-9 DELVTO =0.014148
m1314 net07741 Sb32 vdd vdd pmos L=40e-9 W=180e-9 DELVTO =-0.074088
m1313 net07741 net08836 vdd vdd pmos L=40e-9 W=180e-9 DELVTO =-0.030798
m1312 net07710 c32 vdd vdd pmos L=40e-9 W=180e-9 DELVTO =0.103452
m1311 net07710 Sb31 vdd vdd pmos L=40e-9 W=180e-9 DELVTO =-0.085978
m1310 net07679 Sb30 vdd vdd pmos L=40e-9 W=180e-9 DELVTO =-0.129268
m1309 net07679 c31 vdd vdd pmos L=40e-9 W=180e-9 DELVTO =-0.052332
m1308 net07648 c30 vdd vdd pmos L=40e-9 W=180e-9 DELVTO =-0.017942
m1307 net07648 Sb29 vdd vdd pmos L=40e-9 W=180e-9 DELVTO =0.047875
m1306 net07617 c29 vdd vdd pmos L=40e-9 W=180e-9 DELVTO =0.008275
m1305 net07617 Sb28 vdd vdd pmos L=40e-9 W=180e-9 DELVTO =-0.024664
m1304 net08053 net08028 vdd vdd pmos L=40e-9 W=180e-9 DELVTO =0.016422
m1303 net08053 c41 vdd vdd pmos L=40e-9 W=180e-9 DELVTO =-0.079675
m1302 net08022 Sb40 vdd vdd pmos L=40e-9 W=180e-9 DELVTO =0.021072
m1301 net08022 net08852 vdd vdd pmos L=40e-9 W=180e-9 DELVTO =0.072569
m1300 net07991 Sb39 vdd vdd pmos L=40e-9 W=180e-9 DELVTO =-0.001418
m1299 net07991 c40 vdd vdd pmos L=40e-9 W=180e-9 DELVTO =0.082994
m1298 net07960 Sb38 vdd vdd pmos L=40e-9 W=180e-9 DELVTO =-0.023284