** Generated for: hspiceD
** Generated on: Dec  2 15:52:43 2014
** Design library name: Project_658_copy
** Design cell name: 64stage_FF_PUF
** Design view name: schematic


.TEMP 25.0
.OPTION
+    ARTIST=2
+    INGOLD=2
+    PARHIER=LOCAL
+    PSF=2

** Library name: Project_658
** Cell name: Arbiter
** View name: schematic
.subckt Arbiter d1 d2 out vdd vss
**m12 _net0 _net1 vss vss nmos L=40e-9 W=90e-9
**m5 q out vss vss nmos L=40e-9 W=90e-9
m3 net5 d2 vss vss nmos L=40e-9 W=90e-9
m2 _net1 out net5 vss nmos L=40e-9 W=90e-9
m1 net4 d1 vss vss nmos L=40e-9 W=90e-9
m0 out _net1 net4 vss nmos L=40e-9 W=90e-9
**m11 _net0 _net1 vdd vdd pmos L=40e-9 W=180e-9
**m10 q out vdd vdd pmos L=40e-9 W=180e-9
m9 _net1 out vdd vdd pmos L=40e-9 W=180e-9
m8 _net1 d2 vdd vdd pmos L=40e-9 W=180e-9
m7 out _net1 vdd vdd pmos L=40e-9 W=180e-9
m6 out d1 vdd vdd pmos L=40e-9 W=180e-9
.ends Arbiter
** End of subcircuit definition.

** Library name: Project_658_copy
** Cell name: 64stage_FF_PUF
** View name: schematic
m2096 net04309 net04302 vdd vdd pmos L=40e-9 W=180e-9
m2095 net04309 net03543 vdd vdd pmos L=40e-9 W=180e-9
m2094 net04489 Sa62 vdd vdd pmos L=40e-9 W=180e-9
m2093 net04489 net04482 vdd vdd pmos L=40e-9 W=180e-9
m2092 net04519 net04512 vdd vdd pmos L=40e-9 W=180e-9
m2091 net04519 Sa63 vdd vdd pmos L=40e-9 W=180e-9
m2090 net04459 Sa61 vdd vdd pmos L=40e-9 W=180e-9
m2089 net04459 net04452 vdd vdd pmos L=40e-9 W=180e-9
m2088 net04429 Sa60 vdd vdd pmos L=40e-9 W=180e-9
m2087 net04429 net04422 vdd vdd pmos L=40e-9 W=180e-9
m2086 net04399 Sa59 vdd vdd pmos L=40e-9 W=180e-9
m2085 net04399 net04392 vdd vdd pmos L=40e-9 W=180e-9
m2084 net04369 Sa58 vdd vdd pmos L=40e-9 W=180e-9
m2083 net04369 net04362 vdd vdd pmos L=40e-9 W=180e-9
m2082 net04339 Sa57 vdd vdd pmos L=40e-9 W=180e-9
m2081 net04339 net04332 vdd vdd pmos L=40e-9 W=180e-9
m2080 net04302 c57 vdd vdd pmos L=40e-9 W=180e-9
m2079 net04482 c63 vdd vdd pmos L=40e-9 W=180e-9
m2078 net04512 c64 vdd vdd pmos L=40e-9 W=180e-9
m2077 net04452 c62 vdd vdd pmos L=40e-9 W=180e-9
m2076 net04422 c61 vdd vdd pmos L=40e-9 W=180e-9
m2075 net04392 c60 vdd vdd pmos L=40e-9 W=180e-9
m2074 net04362 c59 vdd vdd pmos L=40e-9 W=180e-9
m2073 net04332 c58 vdd vdd pmos L=40e-9 W=180e-9
m2055 Sa57 net04309 vdd vdd pmos L=40e-9 W=180e-9
m2054 Sa57 net04311 vdd vdd pmos L=40e-9 W=180e-9
m2051 Sa63 net04491 vdd vdd pmos L=40e-9 W=180e-9
m2050 Sa63 net04489 vdd vdd pmos L=40e-9 W=180e-9
m2046 Sa64 net04521 vdd vdd pmos L=40e-9 W=180e-9
m2045 Sa64 net04519 vdd vdd pmos L=40e-9 W=180e-9
m2042 Sa62 net04461 vdd vdd pmos L=40e-9 W=180e-9
m2041 Sa62 net04459 vdd vdd pmos L=40e-9 W=180e-9
m2040 Sa61 net04431 vdd vdd pmos L=40e-9 W=180e-9
m2039 Sa61 net04429 vdd vdd pmos L=40e-9 W=180e-9
m2038 Sa60 net04401 vdd vdd pmos L=40e-9 W=180e-9
m2037 Sa60 net04399 vdd vdd pmos L=40e-9 W=180e-9
m2036 Sa59 net04371 vdd vdd pmos L=40e-9 W=180e-9
m2035 Sa59 net04369 vdd vdd pmos L=40e-9 W=180e-9
m2034 Sa58 net04341 vdd vdd pmos L=40e-9 W=180e-9
m2033 Sa58 net04339 vdd vdd pmos L=40e-9 W=180e-9
m2021 net04311 net08593 vdd vdd pmos L=40e-9 W=180e-9
m2020 net04311 c57 vdd vdd pmos L=40e-9 W=180e-9
m2014 net04491 Sb62 vdd vdd pmos L=40e-9 W=180e-9
m2013 net04491 c63 vdd vdd pmos L=40e-9 W=180e-9
m2012 net04521 Sb63 vdd vdd pmos L=40e-9 W=180e-9
m2011 net04521 c64 vdd vdd pmos L=40e-9 W=180e-9
m2010 net04461 Sb61 vdd vdd pmos L=40e-9 W=180e-9
m2009 net04461 c62 vdd vdd pmos L=40e-9 W=180e-9
m2008 net04431 Sb60 vdd vdd pmos L=40e-9 W=180e-9
m2007 net04431 c61 vdd vdd pmos L=40e-9 W=180e-9
m2006 net04401 Sb59 vdd vdd pmos L=40e-9 W=180e-9
m2005 net04401 c60 vdd vdd pmos L=40e-9 W=180e-9
m2004 net04371 Sb58 vdd vdd pmos L=40e-9 W=180e-9
m2003 net04371 c59 vdd vdd pmos L=40e-9 W=180e-9
m2002 net04341 Sb57 vdd vdd pmos L=40e-9 W=180e-9
m2001 net04341 c58 vdd vdd pmos L=40e-9 W=180e-9
m1984 net04305 net08593 vdd vdd pmos L=40e-9 W=180e-9
m1983 net04305 net04299 vdd vdd pmos L=40e-9 W=180e-9
m1982 net04485 net04479 vdd vdd pmos L=40e-9 W=180e-9
m1981 net04485 Sb62 vdd vdd pmos L=40e-9 W=180e-9
m1980 net04515 Sb63 vdd vdd pmos L=40e-9 W=180e-9
m1979 net04515 net04509 vdd vdd pmos L=40e-9 W=180e-9
m1978 net04395 net04389 vdd vdd pmos L=40e-9 W=180e-9
m1977 net04395 Sb59 vdd vdd pmos L=40e-9 W=180e-9
m1976 net04425 Sb60 vdd vdd pmos L=40e-9 W=180e-9
m1975 net04425 net04419 vdd vdd pmos L=40e-9 W=180e-9
m1974 net04455 net04449 vdd vdd pmos L=40e-9 W=180e-9
m1973 net04455 Sb61 vdd vdd pmos L=40e-9 W=180e-9
m1972 net04335 Sb57 vdd vdd pmos L=40e-9 W=180e-9
m1971 net04335 net04329 vdd vdd pmos L=40e-9 W=180e-9
m1970 net04365 Sb58 vdd vdd pmos L=40e-9 W=180e-9
m1969 net04365 net04359 vdd vdd pmos L=40e-9 W=180e-9
m1968 net04299 c57 vdd vdd pmos L=40e-9 W=180e-9
m1967 net04479 c63 vdd vdd pmos L=40e-9 W=180e-9
m1966 net04509 c64 vdd vdd pmos L=40e-9 W=180e-9
m1965 net04389 c60 vdd vdd pmos L=40e-9 W=180e-9
m1964 net04419 c61 vdd vdd pmos L=40e-9 W=180e-9
m1963 net04449 c62 vdd vdd pmos L=40e-9 W=180e-9
m1962 net04329 c58 vdd vdd pmos L=40e-9 W=180e-9
m1961 net04359 c59 vdd vdd pmos L=40e-9 W=180e-9
m1943 Sb57 net04307 vdd vdd pmos L=40e-9 W=180e-9
m1942 Sb57 net04305 vdd vdd pmos L=40e-9 W=180e-9
m1936 Sb63 net04485 vdd vdd pmos L=40e-9 W=180e-9
m1935 Sb63 net04487 vdd vdd pmos L=40e-9 W=180e-9
m1934 Sb64 net04515 vdd vdd pmos L=40e-9 W=180e-9
m1933 Sb64 net04517 vdd vdd pmos L=40e-9 W=180e-9
m1930 Sb60 net04395 vdd vdd pmos L=40e-9 W=180e-9
m1929 Sb60 net04397 vdd vdd pmos L=40e-9 W=180e-9
m1928 Sb61 net04427 vdd vdd pmos L=40e-9 W=180e-9
m1927 Sb61 net04425 vdd vdd pmos L=40e-9 W=180e-9
m1926 Sb62 net04455 vdd vdd pmos L=40e-9 W=180e-9
m1925 Sb62 net04457 vdd vdd pmos L=40e-9 W=180e-9
m1924 Sb58 net04337 vdd vdd pmos L=40e-9 W=180e-9
m1923 Sb58 net04335 vdd vdd pmos L=40e-9 W=180e-9
m1922 Sb59 net04367 vdd vdd pmos L=40e-9 W=180e-9
m1921 Sb59 net04365 vdd vdd pmos L=40e-9 W=180e-9
m1909 net04307 net03543 vdd vdd pmos L=40e-9 W=180e-9
m1908 net04307 c57 vdd vdd pmos L=40e-9 W=180e-9
m1902 net04487 c63 vdd vdd pmos L=40e-9 W=180e-9
m1901 net04487 Sa62 vdd vdd pmos L=40e-9 W=180e-9
m1900 net04517 Sa63 vdd vdd pmos L=40e-9 W=180e-9
m1899 net04517 c64 vdd vdd pmos L=40e-9 W=180e-9
m1898 net04397 c60 vdd vdd pmos L=40e-9 W=180e-9
m1897 net04397 Sa59 vdd vdd pmos L=40e-9 W=180e-9
m1896 net04427 Sa60 vdd vdd pmos L=40e-9 W=180e-9
m1895 net04427 c61 vdd vdd pmos L=40e-9 W=180e-9
m1894 net04457 c62 vdd vdd pmos L=40e-9 W=180e-9
m1872 net03549 Sa64 vdd vdd pmos L=40e-9 W=180e-9
m1871 net03549 net03542 vdd vdd pmos L=40e-9 W=180e-9
m1870 net03542 net05098 vdd vdd pmos L=40e-9 W=180e-9
m1866 net03559 net03551 vdd vdd pmos L=40e-9 W=180e-9
m1865 net03559 net03549 vdd vdd pmos L=40e-9 W=180e-9
m1862 net03551 Sb64 vdd vdd pmos L=40e-9 W=180e-9
m1861 net03551 net05098 vdd vdd pmos L=40e-9 W=180e-9
m1858 net03545 Sb64 vdd vdd pmos L=40e-9 W=180e-9
m1857 net03545 net03539 vdd vdd pmos L=40e-9 W=180e-9
m1856 net03539 net05098 vdd vdd pmos L=40e-9 W=180e-9
m1852 net03557 net03547 vdd vdd pmos L=40e-9 W=180e-9
m1851 net03557 net03545 vdd vdd pmos L=40e-9 W=180e-9
m1848 net03547 Sa64 vdd vdd pmos L=40e-9 W=180e-9
m1847 net03547 net05098 vdd vdd pmos L=40e-9 W=180e-9
m1844 net08551 Sa55 vdd vdd pmos L=40e-9 W=180e-9
m1843 net08582 net08575 vdd vdd pmos L=40e-9 W=180e-9
m1842 net08582 Sa56 vdd vdd pmos L=40e-9 W=180e-9
m1841 net08551 net08544 vdd vdd pmos L=40e-9 W=180e-9
m1840 net08575 net08884 vdd vdd pmos L=40e-9 W=180e-9
m1839 net08544 c56 vdd vdd pmos L=40e-9 W=180e-9
m1832 Sa56 net08551 vdd vdd pmos L=40e-9 W=180e-9
m1831 Sa56 net08553 vdd vdd pmos L=40e-9 W=180e-9
m1830 net03543 net08582 vdd vdd pmos L=40e-9 W=180e-9
m1829 net03543 net08584 vdd vdd pmos L=40e-9 W=180e-9
m1826 net08270 Sa47 vdd vdd pmos L=40e-9 W=180e-9
m1825 net08332 net08326 vdd vdd pmos L=40e-9 W=180e-9
m1824 net08301 Sa48 vdd vdd pmos L=40e-9 W=180e-9
m1823 net08301 net08294 vdd vdd pmos L=40e-9 W=180e-9
m1822 net08332 net08325 vdd vdd pmos L=40e-9 W=180e-9
m1821 net08270 net08263 vdd vdd pmos L=40e-9 W=180e-9
m1820 net08115 Sa42 vdd vdd pmos L=40e-9 W=180e-9
m1819 net08115 net08108 vdd vdd pmos L=40e-9 W=180e-9
m1818 net08146 Sa43 vdd vdd pmos L=40e-9 W=180e-9
m1817 net08146 net08139 vdd vdd pmos L=40e-9 W=180e-9
m1816 net08177 net08170 vdd vdd pmos L=40e-9 W=180e-9
m1815 net08177 Sa44 vdd vdd pmos L=40e-9 W=180e-9
m1814 net08239 Sa46 vdd vdd pmos L=40e-9 W=180e-9
m1813 net08208 Sa45 vdd vdd pmos L=40e-9 W=180e-9
m1812 net08208 net08201 vdd vdd pmos L=40e-9 W=180e-9
m1811 net08239 net08232 vdd vdd pmos L=40e-9 W=180e-9
m1810 net08082 Sa41 vdd vdd pmos L=40e-9 W=180e-9
m1809 net08082 net08075 vdd vdd pmos L=40e-9 W=180e-9
m1808 net08520 net08513 vdd vdd pmos L=40e-9 W=180e-9
m1807 net08520 Sa54 vdd vdd pmos L=40e-9 W=180e-9
m1806 net08365 net08358 vdd vdd pmos L=40e-9 W=180e-9
m1805 net08365 Sa49 vdd vdd pmos L=40e-9 W=180e-9
m1804 net08396 net08389 vdd vdd pmos L=40e-9 W=180e-9
m1803 net08396 Sa50 vdd vdd pmos L=40e-9 W=180e-9
m1802 net08427 net08420 vdd vdd pmos L=40e-9 W=180e-9
m1801 net08427 Sa51 vdd vdd pmos L=40e-9 W=180e-9
m1800 net08458 net08451 vdd vdd pmos L=40e-9 W=180e-9
m1799 net08458 Sa52 vdd vdd pmos L=40e-9 W=180e-9
m1798 net08489 net08482 vdd vdd pmos L=40e-9 W=180e-9
m1797 net08489 Sa53 vdd vdd pmos L=40e-9 W=180e-9
m1796 net08263 c48 vdd vdd pmos L=40e-9 W=180e-9
m1795 net08294 net08868 vdd vdd pmos L=40e-9 W=180e-9
m1794 net08325 c49 vdd vdd pmos L=40e-9 W=180e-9
m1793 net08108 c43 vdd vdd pmos L=40e-9 W=180e-9
m1792 net08139 c44 vdd vdd pmos L=40e-9 W=180e-9
m1791 net08170 c45 vdd vdd pmos L=40e-9 W=180e-9
m1790 net08201 c46 vdd vdd pmos L=40e-9 W=180e-9
m1789 net08232 c47 vdd vdd pmos L=40e-9 W=180e-9
m1788 net08075 c42 vdd vdd pmos L=40e-9 W=180e-9
m1787 net08513 c55 vdd vdd pmos L=40e-9 W=180e-9
m1786 net08358 c50 vdd vdd pmos L=40e-9 W=180e-9
m1785 net08389 c51 vdd vdd pmos L=40e-9 W=180e-9
m1784 net08420 c52 vdd vdd pmos L=40e-9 W=180e-9
m1783 net08451 c53 vdd vdd pmos L=40e-9 W=180e-9
m1782 net08482 c54 vdd vdd pmos L=40e-9 W=180e-9
m1743 Sa49 net08334 vdd vdd pmos L=40e-9 W=180e-9
m1742 Sa48 net08270 vdd vdd pmos L=40e-9 W=180e-9
m1741 Sa48 net08272 vdd vdd pmos L=40e-9 W=180e-9
m1740 net08326 net08303 vdd vdd pmos L=40e-9 W=180e-9
m1739 net08326 net08301 vdd vdd pmos L=40e-9 W=180e-9
m1738 Sa49 net08332 vdd vdd pmos L=40e-9 W=180e-9
m1736 Sa43 net08117 vdd vdd pmos L=40e-9 W=180e-9
m1735 Sa43 net08115 vdd vdd pmos L=40e-9 W=180e-9
m1734 Sa44 net08148 vdd vdd pmos L=40e-9 W=180e-9
m1733 Sa44 net08146 vdd vdd pmos L=40e-9 W=180e-9
m1732 Sa45 net08177 vdd vdd pmos L=40e-9 W=180e-9
m1731 Sa45 net08179 vdd vdd pmos L=40e-9 W=180e-9
m1730 Sa46 net08210 vdd vdd pmos L=40e-9 W=180e-9
m1729 Sa46 net08208 vdd vdd pmos L=40e-9 W=180e-9
m1728 Sa47 net08239 vdd vdd pmos L=40e-9 W=180e-9
m1727 Sa47 net08241 vdd vdd pmos L=40e-9 W=180e-9
m1726 Sa42 net08084 vdd vdd pmos L=40e-9 W=180e-9
m1725 Sa42 net08082 vdd vdd pmos L=40e-9 W=180e-9
m1718 Sa55 net08520 vdd vdd pmos L=40e-9 W=180e-9
m1717 Sa55 net08522 vdd vdd pmos L=40e-9 W=180e-9
m1716 Sa50 net08365 vdd vdd pmos L=40e-9 W=180e-9
m1715 Sa50 net08367 vdd vdd pmos L=40e-9 W=180e-9
m1714 Sa51 net08396 vdd vdd pmos L=40e-9 W=180e-9
m1713 Sa51 net08398 vdd vdd pmos L=40e-9 W=180e-9
m1712 Sa52 net08427 vdd vdd pmos L=40e-9 W=180e-9
m1711 Sa52 net08429 vdd vdd pmos L=40e-9 W=180e-9
m1710 Sa53 net08458 vdd vdd pmos L=40e-9 W=180e-9
m1709 Sa53 net08460 vdd vdd pmos L=40e-9 W=180e-9
m1708 Sa54 net08489 vdd vdd pmos L=40e-9 W=180e-9
m1707 Sa54 net08491 vdd vdd pmos L=40e-9 W=180e-9
m1688 net07832 net07825 vdd vdd pmos L=40e-9 W=180e-9
m1687 net07801 net07794 vdd vdd pmos L=40e-9 W=180e-9
m1686 net07801 Sa33 vdd vdd pmos L=40e-9 W=180e-9
m1685 net07832 Sa34 vdd vdd pmos L=40e-9 W=180e-9
m1684 net07770 net07764 vdd vdd pmos L=40e-9 W=180e-9
m1683 net07770 net07763 vdd vdd pmos L=40e-9 W=180e-9
m1682 net07739 net07732 vdd vdd pmos L=40e-9 W=180e-9
m1681 net07708 net07701 vdd vdd pmos L=40e-9 W=180e-9
m1680 net07708 Sa31 vdd vdd pmos L=40e-9 W=180e-9
m1679 net07739 Sa32 vdd vdd pmos L=40e-9 W=180e-9
m1678 net07677 Sa30 vdd vdd pmos L=40e-9 W=180e-9
m1677 net07677 net07670 vdd vdd pmos L=40e-9 W=180e-9
m1676 net07646 net07639 vdd vdd pmos L=40e-9 W=180e-9
m1675 net07646 Sa29 vdd vdd pmos L=40e-9 W=180e-9
m1674 net07615 net07608 vdd vdd pmos L=40e-9 W=180e-9
m1673 net07615 Sa28 vdd vdd pmos L=40e-9 W=180e-9
m1672 net08051 net08045 vdd vdd pmos L=40e-9 W=180e-9
m1671 net08051 net08044 vdd vdd pmos L=40e-9 W=180e-9
m1670 net08020 Sa40 vdd vdd pmos L=40e-9 W=180e-9
m1669 net08020 net08013 vdd vdd pmos L=40e-9 W=180e-9
m1668 net07989 Sa39 vdd vdd pmos L=40e-9 W=180e-9
m1667 net07989 net07982 vdd vdd pmos L=40e-9 W=180e-9
m1666 net07958 Sa38 vdd vdd pmos L=40e-9 W=180e-9
m1665 net07958 net07951 vdd vdd pmos L=40e-9 W=180e-9
m1664 net07927 Sa37 vdd vdd pmos L=40e-9 W=180e-9
m1663 net07927 net07920 vdd vdd pmos L=40e-9 W=180e-9
m1662 net07896 Sa36 vdd vdd pmos L=40e-9 W=180e-9
m1661 net07896 net07889 vdd vdd pmos L=40e-9 W=180e-9
m1660 net07865 Sa35 vdd vdd pmos L=40e-9 W=180e-9
m1659 net07865 net07858 vdd vdd pmos L=40e-9 W=180e-9
m1658 net07825 c35 vdd vdd pmos L=40e-9 W=180e-9
m1657 net07794 c34 vdd vdd pmos L=40e-9 W=180e-9
m1656 net07763 c33 vdd vdd pmos L=40e-9 W=180e-9
m1655 net07732 net08836 vdd vdd pmos L=40e-9 W=180e-9
m1654 net07701 c32 vdd vdd pmos L=40e-9 W=180e-9
m1653 net07670 c31 vdd vdd pmos L=40e-9 W=180e-9
m1652 net07639 c30 vdd vdd pmos L=40e-9 W=180e-9
m1651 net07608 c29 vdd vdd pmos L=40e-9 W=180e-9
m1650 net08044 c41 vdd vdd pmos L=40e-9 W=180e-9
m1649 net08013 net08852 vdd vdd pmos L=40e-9 W=180e-9
m1648 net07982 c40 vdd vdd pmos L=40e-9 W=180e-9
m1647 net07951 c39 vdd vdd pmos L=40e-9 W=180e-9
m1646 net07920 c38 vdd vdd pmos L=40e-9 W=180e-9
m1645 net07889 c37 vdd vdd pmos L=40e-9 W=180e-9
m1644 net07858 c36 vdd vdd pmos L=40e-9 W=180e-9
m1610 Sa35 net07832 vdd vdd pmos L=40e-9 W=180e-9
m1609 Sa34 net07801 vdd vdd pmos L=40e-9 W=180e-9
m1608 Sa34 net07803 vdd vdd pmos L=40e-9 W=180e-9
m1607 Sa33 net07772 vdd vdd pmos L=40e-9 W=180e-9
m1606 Sa33 net07770 vdd vdd pmos L=40e-9 W=180e-9
m1605 Sa35 net07834 vdd vdd pmos L=40e-9 W=180e-9
m1599 net07764 net07741 vdd vdd pmos L=40e-9 W=180e-9
m1598 net07764 net07739 vdd vdd pmos L=40e-9 W=180e-9
m1597 Sa32 net07708 vdd vdd pmos L=40e-9 W=180e-9
m1596 Sa32 net07710 vdd vdd pmos L=40e-9 W=180e-9
m1595 Sa31 net07679 vdd vdd pmos L=40e-9 W=180e-9
m1594 Sa31 net07677 vdd vdd pmos L=40e-9 W=180e-9
m1593 Sa30 net07646 vdd vdd pmos L=40e-9 W=180e-9
m1592 Sa30 net07648 vdd vdd pmos L=40e-9 W=180e-9
m1591 Sa29 net07615 vdd vdd pmos L=40e-9 W=180e-9
m1590 Sa29 net07617 vdd vdd pmos L=40e-9 W=180e-9
m1587 Sa41 net08053 vdd vdd pmos L=40e-9 W=180e-9
m1586 Sa41 net08051 vdd vdd pmos L=40e-9 W=180e-9
m1585 net08045 net08022 vdd vdd pmos L=40e-9 W=180e-9
m1584 net08045 net08020 vdd vdd pmos L=40e-9 W=180e-9
m1578 Sa40 net07991 vdd vdd pmos L=40e-9 W=180e-9
m1577 Sa40 net07989 vdd vdd pmos L=40e-9 W=180e-9
m1576 Sa39 net07960 vdd vdd pmos L=40e-9 W=180e-9
m1575 Sa39 net07958 vdd vdd pmos L=40e-9 W=180e-9
m1574 Sa38 net07929 vdd vdd pmos L=40e-9 W=180e-9
m1573 Sa38 net07927 vdd vdd pmos L=40e-9 W=180e-9
m1572 Sa37 net07898 vdd vdd pmos L=40e-9 W=180e-9
m1571 Sa37 net07896 vdd vdd pmos L=40e-9 W=180e-9
m1570 Sa36 net07867 vdd vdd pmos L=40e-9 W=180e-9
m1569 Sa36 net07865 vdd vdd pmos L=40e-9 W=180e-9
m1543 net08553 c56 vdd vdd pmos L=40e-9 W=180e-9
m1542 net08553 Sb55 vdd vdd pmos L=40e-9 W=180e-9
m1541 net08584 net08884 vdd vdd pmos L=40e-9 W=180e-9
m1540 net08584 Sb56 vdd vdd pmos L=40e-9 W=180e-9
m1535 net08547 net08541 vdd vdd pmos L=40e-9 W=180e-9
m1534 net08547 Sb55 vdd vdd pmos L=40e-9 W=180e-9
m1533 net08578 Sb56 vdd vdd pmos L=40e-9 W=180e-9
m1532 net08578 net08572 vdd vdd pmos L=40e-9 W=180e-9
m1531 net08572 net08884 vdd vdd pmos L=40e-9 W=180e-9
m1530 net08541 c56 vdd vdd pmos L=40e-9 W=180e-9
m1523 Sb56 net08549 vdd vdd pmos L=40e-9 W=180e-9
m1522 net08593 net08580 vdd vdd pmos L=40e-9 W=180e-9
m1521 net08593 net08578 vdd vdd pmos L=40e-9 W=180e-9
m1520 Sb56 net08547 vdd vdd pmos L=40e-9 W=180e-9
m1513 net08272 c48 vdd vdd pmos L=40e-9 W=180e-9
m1512 net08272 Sb47 vdd vdd pmos L=40e-9 W=180e-9
m1511 net08303 Sb48 vdd vdd pmos L=40e-9 W=180e-9
m1510 net08303 net08868 vdd vdd pmos L=40e-9 W=180e-9
m1509 net08334 c49 vdd vdd pmos L=40e-9 W=180e-9
m1508 net08334 net08309 vdd vdd pmos L=40e-9 W=180e-9
m1506 net08117 Sb42 vdd vdd pmos L=40e-9 W=180e-9
m1505 net08117 c43 vdd vdd pmos L=40e-9 W=180e-9
m1504 net08148 Sb43 vdd vdd pmos L=40e-9 W=180e-9
m1503 net08148 c44 vdd vdd pmos L=40e-9 W=180e-9
m1502 net08179 c45 vdd vdd pmos L=40e-9 W=180e-9
m1501 net08179 Sb44 vdd vdd pmos L=40e-9 W=180e-9
m1500 net08210 Sb45 vdd vdd pmos L=40e-9 W=180e-9
m1499 net08210 c46 vdd vdd pmos L=40e-9 W=180e-9
m1498 net08241 c47 vdd vdd pmos L=40e-9 W=180e-9
m1497 net08241 Sb46 vdd vdd pmos L=40e-9 W=180e-9
m1491 net08084 Sb41 vdd vdd pmos L=40e-9 W=180e-9
m1490 net08084 c42 vdd vdd pmos L=40e-9 W=180e-9
m1489 net08522 c55 vdd vdd pmos L=40e-9 W=180e-9
m1488 net08522 Sb54 vdd vdd pmos L=40e-9 W=180e-9
m1487 net08367 c50 vdd vdd pmos L=40e-9 W=180e-9
m1486 net08367 Sb49 vdd vdd pmos L=40e-9 W=180e-9
m1485 net08398 c51 vdd vdd pmos L=40e-9 W=180e-9
m1484 net08398 Sb50 vdd vdd pmos L=40e-9 W=180e-9
m1483 net08429 c52 vdd vdd pmos L=40e-9 W=180e-9
m1482 net08429 Sb51 vdd vdd pmos L=40e-9 W=180e-9
m1481 net08460 c53 vdd vdd pmos L=40e-9 W=180e-9
m1480 net08460 Sb52 vdd vdd pmos L=40e-9 W=180e-9
m1479 net08491 c54 vdd vdd pmos L=40e-9 W=180e-9
m1478 net08491 Sb53 vdd vdd pmos L=40e-9 W=180e-9
m1447 net08266 net08260 vdd vdd pmos L=40e-9 W=180e-9
m1446 net08266 Sb47 vdd vdd pmos L=40e-9 W=180e-9
m1445 net08297 Sb48 vdd vdd pmos L=40e-9 W=180e-9
m1444 net08297 net08291 vdd vdd pmos L=40e-9 W=180e-9
m1443 net08328 net08322 vdd vdd pmos L=40e-9 W=180e-9
m1442 net08328 net08309 vdd vdd pmos L=40e-9 W=180e-9
m1441 net08111 Sb42 vdd vdd pmos L=40e-9 W=180e-9
m1440 net08111 net08105 vdd vdd pmos L=40e-9 W=180e-9
m1439 net08142 Sb43 vdd vdd pmos L=40e-9 W=180e-9
m1438 net08142 net08136 vdd vdd pmos L=40e-9 W=180e-9
m1437 net08173 net08167 vdd vdd pmos L=40e-9 W=180e-9
m1436 net08173 Sb44 vdd vdd pmos L=40e-9 W=180e-9
m1435 net08204 Sb45 vdd vdd pmos L=40e-9 W=180e-9
m1434 net08204 net08198 vdd vdd pmos L=40e-9 W=180e-9
m1433 net08235 net08229 vdd vdd pmos L=40e-9 W=180e-9
m1432 net08235 Sb46 vdd vdd pmos L=40e-9 W=180e-9
m1431 net08078 net08072 vdd vdd pmos L=40e-9 W=180e-9
m1430 net08078 Sb41 vdd vdd pmos L=40e-9 W=180e-9
m1429 net08516 Sb54 vdd vdd pmos L=40e-9 W=180e-9
m1428 net08516 net08510 vdd vdd pmos L=40e-9 W=180e-9
m1427 net08485 Sb53 vdd vdd pmos L=40e-9 W=180e-9
m1426 net08485 net08479 vdd vdd pmos L=40e-9 W=180e-9
m1425 net08454 net08448 vdd vdd pmos L=40e-9 W=180e-9
m1424 net08454 Sb52 vdd vdd pmos L=40e-9 W=180e-9
m1423 net08423 Sb51 vdd vdd pmos L=40e-9 W=180e-9
m1422 net08423 net08417 vdd vdd pmos L=40e-9 W=180e-9
m1421 net08392 net08386 vdd vdd pmos L=40e-9 W=180e-9
m1420 net08392 Sb50 vdd vdd pmos L=40e-9 W=180e-9
m1419 net08361 net08355 vdd vdd pmos L=40e-9 W=180e-9
m1418 net08361 Sb49 vdd vdd pmos L=40e-9 W=180e-9
m1417 net08260 c48 vdd vdd pmos L=40e-9 W=180e-9
m1416 net08291 net08868 vdd vdd pmos L=40e-9 W=180e-9
m1415 net08322 c49 vdd vdd pmos L=40e-9 W=180e-9
m1414 net08105 c43 vdd vdd pmos L=40e-9 W=180e-9
m1413 net08136 c44 vdd vdd pmos L=40e-9 W=180e-9
m1412 net08167 c45 vdd vdd pmos L=40e-9 W=180e-9
m1411 net08198 c46 vdd vdd pmos L=40e-9 W=180e-9
m1410 net08229 c47 vdd vdd pmos L=40e-9 W=180e-9
m1409 net08072 c42 vdd vdd pmos L=40e-9 W=180e-9
m1408 net08510 c55 vdd vdd pmos L=40e-9 W=180e-9
m1407 net08479 c54 vdd vdd pmos L=40e-9 W=180e-9
m1406 net08448 c53 vdd vdd pmos L=40e-9 W=180e-9
m1405 net08417 c52 vdd vdd pmos L=40e-9 W=180e-9
m1404 net08386 c51 vdd vdd pmos L=40e-9 W=180e-9
m1403 net08355 c50 vdd vdd pmos L=40e-9 W=180e-9
m1364 Sb48 net08266 vdd vdd pmos L=40e-9 W=180e-9
m1363 Sb48 net08268 vdd vdd pmos L=40e-9 W=180e-9
m1362 net08309 net08299 vdd vdd pmos L=40e-9 W=180e-9
m1361 net08309 net08297 vdd vdd pmos L=40e-9 W=180e-9
m1360 Sb49 net08328 vdd vdd pmos L=40e-9 W=180e-9
m1359 Sb49 net08330 vdd vdd pmos L=40e-9 W=180e-9
m1357 Sb43 net08111 vdd vdd pmos L=40e-9 W=180e-9
m1356 Sb44 net08144 vdd vdd pmos L=40e-9 W=180e-9
m1355 Sb44 net08142 vdd vdd pmos L=40e-9 W=180e-9
m1354 Sb45 net08173 vdd vdd pmos L=40e-9 W=180e-9
m1353 Sb45 net08175 vdd vdd pmos L=40e-9 W=180e-9
m1352 Sb46 net08206 vdd vdd pmos L=40e-9 W=180e-9
m1351 Sb46 net08204 vdd vdd pmos L=40e-9 W=180e-9
m1350 Sb47 net08235 vdd vdd pmos L=40e-9 W=180e-9
m1349 Sb47 net08237 vdd vdd pmos L=40e-9 W=180e-9
m1348 Sb43 net08113 vdd vdd pmos L=40e-9 W=180e-9
m1347 Sb42 net08078 vdd vdd pmos L=40e-9 W=180e-9
m1346 Sb42 net08080 vdd vdd pmos L=40e-9 W=180e-9
m1344 Sb55 net08518 vdd vdd pmos L=40e-9 W=180e-9
m1343 Sb55 net08516 vdd vdd pmos L=40e-9 W=180e-9
m1337 Sb54 net08487 vdd vdd pmos L=40e-9 W=180e-9
m1336 Sb54 net08485 vdd vdd pmos L=40e-9 W=180e-9
m1335 Sb53 net08454 vdd vdd pmos L=40e-9 W=180e-9
m1334 Sb53 net08456 vdd vdd pmos L=40e-9 W=180e-9
m1333 Sb52 net08425 vdd vdd pmos L=40e-9 W=180e-9
m1332 Sb52 net08423 vdd vdd pmos L=40e-9 W=180e-9
m1331 Sb51 net08392 vdd vdd pmos L=40e-9 W=180e-9
m1330 Sb51 net08394 vdd vdd pmos L=40e-9 W=180e-9
m1329 Sb50 net08361 vdd vdd pmos L=40e-9 W=180e-9
m1328 Sb50 net08363 vdd vdd pmos L=40e-9 W=180e-9
m1325 net07834 Sb34 vdd vdd pmos L=40e-9 W=180e-9
m1324 net07834 c35 vdd vdd pmos L=40e-9 W=180e-9
m1323 net07803 c34 vdd vdd pmos L=40e-9 W=180e-9
m1322 net07803 Sb33 vdd vdd pmos L=40e-9 W=180e-9
m1321 net07772 net07747 vdd vdd pmos L=40e-9 W=180e-9
m1320 net07772 c33 vdd vdd pmos L=40e-9 W=180e-9
m1314 net07741 Sb32 vdd vdd pmos L=40e-9 W=180e-9
m1313 net07741 net08836 vdd vdd pmos L=40e-9 W=180e-9
m1312 net07710 c32 vdd vdd pmos L=40e-9 W=180e-9
m1311 net07710 Sb31 vdd vdd pmos L=40e-9 W=180e-9
m1310 net07679 Sb30 vdd vdd pmos L=40e-9 W=180e-9
m1309 net07679 c31 vdd vdd pmos L=40e-9 W=180e-9
m1308 net07648 c30 vdd vdd pmos L=40e-9 W=180e-9
m1307 net07648 Sb29 vdd vdd pmos L=40e-9 W=180e-9
m1306 net07617 c29 vdd vdd pmos L=40e-9 W=180e-9
m1305 net07617 Sb28 vdd vdd pmos L=40e-9 W=180e-9
m1304 net08053 net08028 vdd vdd pmos L=40e-9 W=180e-9
m1303 net08053 c41 vdd vdd pmos L=40e-9 W=180e-9
m1302 net08022 Sb40 vdd vdd pmos L=40e-9 W=180e-9
m1301 net08022 net08852 vdd vdd pmos L=40e-9 W=180e-9
m1300 net07991 Sb39 vdd vdd pmos L=40e-9 W=180e-9
m1299 net07991 c40 vdd vdd pmos L=40e-9 W=180e-9
m1298 net07960 Sb38 vdd vdd pmos L=40e-9 W=180e-9
m1297 net07960 c39 vdd vdd pmos L=40e-9 W=180e-9
m1296 net07929 Sb37 vdd vdd pmos L=40e-9 W=180e-9
m1295 net07929 c38 vdd vdd pmos L=40e-9 W=180e-9
m1294 net07898 Sb36 vdd vdd pmos L=40e-9 W=180e-9
m1293 net07898 c37 vdd vdd pmos L=40e-9 W=180e-9
m1292 net07867 Sb35 vdd vdd pmos L=40e-9 W=180e-9
m1291 net07867 c36 vdd vdd pmos L=40e-9 W=180e-9
m1260 net07828 Sb34 vdd vdd pmos L=40e-9 W=180e-9
m1259 net07828 net07822 vdd vdd pmos L=40e-9 W=180e-9
m1258 net07797 net07791 vdd vdd pmos L=40e-9 W=180e-9
m1257 net07797 Sb33 vdd vdd pmos L=40e-9 W=180e-9
m1256 net07766 net07747 vdd vdd pmos L=40e-9 W=180e-9
m1255 net07766 net07760 vdd vdd pmos L=40e-9 W=180e-9
m1254 net07735 Sb32 vdd vdd pmos L=40e-9 W=180e-9
m1253 net07735 net07729 vdd vdd pmos L=40e-9 W=180e-9
m1252 net07704 net07698 vdd vdd pmos L=40e-9 W=180e-9
m1251 net07704 Sb31 vdd vdd pmos L=40e-9 W=180e-9
m1250 net07673 Sb30 vdd vdd pmos L=40e-9 W=180e-9
m1249 net07673 net07667 vdd vdd pmos L=40e-9 W=180e-9
m1248 net07642 net07636 vdd vdd pmos L=40e-9 W=180e-9
m1247 net07642 Sb29 vdd vdd pmos L=40e-9 W=180e-9
m1246 net07611 net07605 vdd vdd pmos L=40e-9 W=180e-9
m1245 net07611 Sb28 vdd vdd pmos L=40e-9 W=180e-9
m1244 net08016 net08010 vdd vdd pmos L=40e-9 W=180e-9
m1243 net08016 Sb40 vdd vdd pmos L=40e-9 W=180e-9
m1242 net08047 net08028 vdd vdd pmos L=40e-9 W=180e-9
m1241 net08047 net08041 vdd vdd pmos L=40e-9 W=180e-9
m1240 net07861 Sb35 vdd vdd pmos L=40e-9 W=180e-9
m1239 net07861 net07855 vdd vdd pmos L=40e-9 W=180e-9
m1238 net07892 Sb36 vdd vdd pmos L=40e-9 W=180e-9
m1237 net07892 net07886 vdd vdd pmos L=40e-9 W=180e-9
m1236 net07923 net07917 vdd vdd pmos L=40e-9 W=180e-9
m1235 net07923 Sb37 vdd vdd pmos L=40e-9 W=180e-9
m1234 net07954 Sb38 vdd vdd pmos L=40e-9 W=180e-9
m1233 net07954 net07948 vdd vdd pmos L=40e-9 W=180e-9
m1232 net07985 net07979 vdd vdd pmos L=40e-9 W=180e-9
m1231 net07985 Sb39 vdd vdd pmos L=40e-9 W=180e-9
m1230 net07822 c35 vdd vdd pmos L=40e-9 W=180e-9
m1229 net07791 c34 vdd vdd pmos L=40e-9 W=180e-9
m1228 net07760 c33 vdd vdd pmos L=40e-9 W=180e-9
m1227 net07729 net08836 vdd vdd pmos L=40e-9 W=180e-9
m1226 net07698 c32 vdd vdd pmos L=40e-9 W=180e-9
m1225 net07667 c31 vdd vdd pmos L=40e-9 W=180e-9
m1224 net07636 c30 vdd vdd pmos L=40e-9 W=180e-9
m1223 net07605 c29 vdd vdd pmos L=40e-9 W=180e-9
m1222 net08010 net08852 vdd vdd pmos L=40e-9 W=180e-9
m1221 net08041 c41 vdd vdd pmos L=40e-9 W=180e-9
m1220 net07855 c36 vdd vdd pmos L=40e-9 W=180e-9
m1219 net07886 c37 vdd vdd pmos L=40e-9 W=180e-9
m1218 net07917 c38 vdd vdd pmos L=40e-9 W=180e-9
m1217 net07948 c39 vdd vdd pmos L=40e-9 W=180e-9
m1216 net07979 c40 vdd vdd pmos L=40e-9 W=180e-9
m1182 Sb35 net07830 vdd vdd pmos L=40e-9 W=180e-9
m1181 Sb35 net07828 vdd vdd pmos L=40e-9 W=180e-9
m1180 Sb34 net07797 vdd vdd pmos L=40e-9 W=180e-9
m1179 Sb34 net07799 vdd vdd pmos L=40e-9 W=180e-9
m1178 Sb33 net07768 vdd vdd pmos L=40e-9 W=180e-9
m1177 Sb33 net07766 vdd vdd pmos L=40e-9 W=180e-9
m1171 net07747 net07737 vdd vdd pmos L=40e-9 W=180e-9
m1170 net07747 net07735 vdd vdd pmos L=40e-9 W=180e-9
m1169 Sb32 net07704 vdd vdd pmos L=40e-9 W=180e-9
m1168 Sb32 net07706 vdd vdd pmos L=40e-9 W=180e-9
m1167 Sb31 net07675 vdd vdd pmos L=40e-9 W=180e-9
m1166 Sb31 net07673 vdd vdd pmos L=40e-9 W=180e-9
m1165 Sb30 net07642 vdd vdd pmos L=40e-9 W=180e-9
m1164 Sb30 net07644 vdd vdd pmos L=40e-9 W=180e-9
m1163 Sb29 net07611 vdd vdd pmos L=40e-9 W=180e-9
m1162 Sb29 net07613 vdd vdd pmos L=40e-9 W=180e-9
m1154 net08028 net08016 vdd vdd pmos L=40e-9 W=180e-9
m1153 net08028 net08018 vdd vdd pmos L=40e-9 W=180e-9
m1152 Sb41 net08049 vdd vdd pmos L=40e-9 W=180e-9
m1151 Sb41 net08047 vdd vdd pmos L=40e-9 W=180e-9
m1150 Sb36 net07863 vdd vdd pmos L=40e-9 W=180e-9
m1149 Sb36 net07861 vdd vdd pmos L=40e-9 W=180e-9
m1148 Sb37 net07894 vdd vdd pmos L=40e-9 W=180e-9
m1147 Sb37 net07892 vdd vdd pmos L=40e-9 W=180e-9
m1146 Sb38 net07923 vdd vdd pmos L=40e-9 W=180e-9
m1145 Sb38 net07925 vdd vdd pmos L=40e-9 W=180e-9
m1144 Sb39 net07956 vdd vdd pmos L=40e-9 W=180e-9
m1143 Sb39 net07954 vdd vdd pmos L=40e-9 W=180e-9
m1142 Sb40 net07985 vdd vdd pmos L=40e-9 W=180e-9
m1141 Sb40 net07987 vdd vdd pmos L=40e-9 W=180e-9
m1136 net08549 c56 vdd vdd pmos L=40e-9 W=180e-9
m1135 net08549 Sa55 vdd vdd pmos L=40e-9 W=180e-9
m1134 net08580 Sa56 vdd vdd pmos L=40e-9 W=180e-9
m1133 net08580 net08884 vdd vdd pmos L=40e-9 W=180e-9
m1104 net08268 c48 vdd vdd pmos L=40e-9 W=180e-9
m1103 net08268 Sa47 vdd vdd pmos L=40e-9 W=180e-9
m1102 net08299 Sa48 vdd vdd pmos L=40e-9 W=180e-9
m1101 net08299 net08868 vdd vdd pmos L=40e-9 W=180e-9
m1100 net08330 c49 vdd vdd pmos L=40e-9 W=180e-9
m1099 net08330 net08326 vdd vdd pmos L=40e-9 W=180e-9
m1097 net08113 Sa42 vdd vdd pmos L=40e-9 W=180e-9
m1096 net08113 c43 vdd vdd pmos L=40e-9 W=180e-9
m1095 net08144 Sa43 vdd vdd pmos L=40e-9 W=180e-9
m1094 net08144 c44 vdd vdd pmos L=40e-9 W=180e-9
m1093 net08175 c45 vdd vdd pmos L=40e-9 W=180e-9
m1092 net08175 Sa44 vdd vdd pmos L=40e-9 W=180e-9
m1091 net08206 Sa45 vdd vdd pmos L=40e-9 W=180e-9
m1090 net08206 c46 vdd vdd pmos L=40e-9 W=180e-9
m1089 net08237 c47 vdd vdd pmos L=40e-9 W=180e-9
m1088 net08237 Sa46 vdd vdd pmos L=40e-9 W=180e-9
m1082 net08080 c42 vdd vdd pmos L=40e-9 W=180e-9
m1081 net08080 Sa41 vdd vdd pmos L=40e-9 W=180e-9
m1080 net08518 Sa54 vdd vdd pmos L=40e-9 W=180e-9
m1079 net08518 c55 vdd vdd pmos L=40e-9 W=180e-9
m1078 net08487 Sa53 vdd vdd pmos L=40e-9 W=180e-9
m1077 net08487 c54 vdd vdd pmos L=40e-9 W=180e-9
m1076 net08456 c53 vdd vdd pmos L=40e-9 W=180e-9
m1075 net08456 Sa52 vdd vdd pmos L=40e-9 W=180e-9
m1074 net08425 Sa51 vdd vdd pmos L=40e-9 W=180e-9
m1073 net08425 c52 vdd vdd pmos L=40e-9 W=180e-9
m1072 net08394 c51 vdd vdd pmos L=40e-9 W=180e-9
m1071 net08394 Sa50 vdd vdd pmos L=40e-9 W=180e-9
m1070 net08363 c50 vdd vdd pmos L=40e-9 W=180e-9
m1069 net08363 Sa49 vdd vdd pmos L=40e-9 W=180e-9
m1013 net07830 Sa34 vdd vdd pmos L=40e-9 W=180e-9
m1012 net07830 c35 vdd vdd pmos L=40e-9 W=180e-9
m1011 net07799 c34 vdd vdd pmos L=40e-9 W=180e-9
m1010 net07799 Sa33 vdd vdd pmos L=40e-9 W=180e-9
m1009 net07768 net07764 vdd vdd pmos L=40e-9 W=180e-9
m1008 net07768 c33 vdd vdd pmos L=40e-9 W=180e-9
m1002 net07737 Sa32 vdd vdd pmos L=40e-9 W=180e-9
m1001 net07737 net08836 vdd vdd pmos L=40e-9 W=180e-9
m1000 net07706 c32 vdd vdd pmos L=40e-9 W=180e-9
m999 net07706 Sa31 vdd vdd pmos L=40e-9 W=180e-9
m998 net07675 Sa30 vdd vdd pmos L=40e-9 W=180e-9
m997 net07675 c31 vdd vdd pmos L=40e-9 W=180e-9
m996 net07644 c30 vdd vdd pmos L=40e-9 W=180e-9
m995 net07644 Sa29 vdd vdd pmos L=40e-9 W=180e-9
m994 net07613 c29 vdd vdd pmos L=40e-9 W=180e-9
m993 net07613 Sa28 vdd vdd pmos L=40e-9 W=180e-9
m992 net08018 net08852 vdd vdd pmos L=40e-9 W=180e-9
m991 net08018 Sa40 vdd vdd pmos L=40e-9 W=180e-9
m990 net08049 net08045 vdd vdd pmos L=40e-9 W=180e-9
m989 net08049 c41 vdd vdd pmos L=40e-9 W=180e-9
m988 net07863 Sa35 vdd vdd pmos L=40e-9 W=180e-9
m987 net07863 c36 vdd vdd pmos L=40e-9 W=180e-9
m986 net07894 Sa36 vdd vdd pmos L=40e-9 W=180e-9
m985 net07894 c37 vdd vdd pmos L=40e-9 W=180e-9
m984 net07925 c38 vdd vdd pmos L=40e-9 W=180e-9
m983 net07925 Sa37 vdd vdd pmos L=40e-9 W=180e-9
m982 net07956 Sa38 vdd vdd pmos L=40e-9 W=180e-9
m981 net07956 c39 vdd vdd pmos L=40e-9 W=180e-9
m980 net07987 c40 vdd vdd pmos L=40e-9 W=180e-9
m979 net07987 Sa39 vdd vdd pmos L=40e-9 W=180e-9
m948 Sa28 net07584 vdd vdd pmos L=40e-9 W=180e-9
m945 Sa28 net07582 vdd vdd pmos L=40e-9 W=180e-9
m944 net07584 Sb27 vdd vdd pmos L=40e-9 W=180e-9