** Generated for: hspiceD
** Generated on: Jun 14 12:58:44 2013
** Design library name: FFPUF_SCA
** Design cell name: 128stagesMux2Arb
** Design view name: schematic
.GLOBAL vss! vdd!

.include '/home/akommini/658proj/NMOS32LP.inc'
.include '/home/akommini/658proj/PMOS32LP.inc'
vsupply vdd! 0 1.0
vss vss! 0 0
.vec '68stage2FFPUF1.vec'
vclock clk 0 PWL (0 0 3.49n 0 3.5n 1.1 3.9n 1.1)

.TEMP 25
.OPTION
+ POST=2
+ PROBE

** Library name: NangateOpenCellLibrary
** Cell name: NAND2_X1
** View name: schematic
.subckt NAND2_X1 a1 a2 zn
m_i_3 zn a2 vdd! vdd! PMOS_VTL L=50e-9 W=630e-9
m_i_2 vdd! a1 zn vdd! PMOS_VTL L=50e-9 W=630e-9
m_i_0 zn a1 net_0 vss! NMOS_VTL L=50e-9 W=415e-9
m_i_1 net_0 a2 vss! vss! NMOS_VTL L=50e-9 W=415e-9
.ends NAND2_X1
** End of subcircuit definition.

** Library name: NangateOpenCellLibrary
** Cell name: INV_X1
** View name: schematic
.subckt INV_X1 a zn
m_i_0 zn a vss! vss! NMOS_VTL L=50e-9 W=415e-9
m_i_1 zn a vdd! vdd! PMOS_VTL L=50e-9 W=630e-9
.ends INV_X1
** End of subcircuit definition.

** Library name: FFPUF_SCA
** Cell name: Arbiter
** View name: schematic
.subckt Arbiter a b y_a y_b
xi1 net6 b net5 NAND2_X1
xi0 net5 a net6 NAND2_X1
xi5 net5 y_b INV_X1
xi4 net6 y_a INV_X1
.ends Arbiter
** End of subcircuit definition.

** Library name: NangateOpenCellLibrary
** Cell name: DFF_X1
** View name: schematic
.subckt DFF_X1 ck d q qn
m_mn3 z2 d vss! vss! NMOS_VTL L=50e-9 W=275e-9
m_mn4 z2 cni z3 vss! NMOS_VTL L=50e-9 W=275e-9
m_mn6 vss! z4 z6 vss! NMOS_VTL L=50e-9 W=90e-9
m_mn7 z3 ci z6 vss! NMOS_VTL L=50e-9 W=90e-9
m_mn1 vss! ck cni vss! NMOS_VTL L=50e-9 W=210e-9
m_mn8 z12 z3 vss! vss! NMOS_VTL L=50e-9 W=210e-9
m_mn9 z9 ci z12 vss! NMOS_VTL L=50e-9 W=210e-9
m_mn12 z9 cni z8 vss! NMOS_VTL L=50e-9 W=90e-9
m_mn11 z8 z10 vss! vss! NMOS_VTL L=50e-9 W=90e-9
m_mn14 qn z9 vss! vss! NMOS_VTL L=50e-9 W=415e-9
m_mn13 vss! z10 q vss! NMOS_VTL L=50e-9 W=415e-9
m_mn5 z4 z3 vss! vss! NMOS_VTL L=50e-9 W=210e-9
m_mn2 ci cni vss! vss! NMOS_VTL L=50e-9 W=210e-9
m_mn10 vss! z9 z10 vss! NMOS_VTL L=50e-9 W=210e-9
m_mp4 z3 ci z5 vdd! PMOS_VTL L=50e-9 W=420e-9
m_mp3 z5 d vdd! vdd! PMOS_VTL L=50e-9 W=420e-9
m_mp7 z1 cni z3 vdd! PMOS_VTL L=50e-9 W=90e-9
m_mp6 vdd! z4 z1 vdd! PMOS_VTL L=50e-9 W=90e-9
m_mp1 vdd! ck cni vdd! PMOS_VTL L=50e-9 W=315e-9
m_mp8 z7 z3 vdd! vdd! PMOS_VTL L=50e-9 W=315e-9
m_mp9 z9 cni z7 vdd! PMOS_VTL L=50e-9 W=315e-9
m_mp12 z9 ci z11 vdd! PMOS_VTL L=50e-9 W=90e-9
m_mp11 z11 z10 vdd! vdd! PMOS_VTL L=50e-9 W=90e-9
m_mp14 qn z9 vdd! vdd! PMOS_VTL L=50e-9 W=630e-9
m_mp13 vdd! z10 q vdd! PMOS_VTL L=50e-9 W=630e-9
m_mp5 z4 z3 vdd! vdd! PMOS_VTL L=50e-9 W=315e-9
m_mp2 ci cni vdd! vdd! PMOS_VTL L=50e-9 W=315e-9
m_mp10 vdd! z9 z10 vdd! PMOS_VTL L=50e-9 W=315e-9
.ends DFF_X1
** End of subcircuit definition.

** Library name: FFPUF_SCA
** Cell name: 128stagesMux2Arb
** View name: schematic
m3154 s128a net028885 vss! vss! NMOS_VTL L=50e-9 W=415e-9 DELVTO =0.064818
m3152 net028885 net028897 net022149 vss! NMOS_VTL L=50e-9 W=210e-9 DELVTO =0.000386
m3151 net022149 s127a vss! vss! NMOS_VTL L=50e-9 W=210e-9 DELVTO =-0.044414
m3148 vss! chal128 net028897 vss! NMOS_VTL L=50e-9 W=210e-9 DELVTO =0.060083
m3147 s127a net028921 vss! vss! NMOS_VTL L=50e-9 W=415e-9 DELVTO =-0.033654
m3145 net028921 net028933 net022165 vss! NMOS_VTL L=50e-9 W=210e-9 DELVTO =0.104280
m3144 net022165 s126a vss! vss! NMOS_VTL L=50e-9 W=210e-9 DELVTO =-0.044057
m3143 vss! chal127 net028933 vss! NMOS_VTL L=50e-9 W=210e-9 DELVTO =-0.041577
m3140 s126a net028965 vss! vss! NMOS_VTL L=50e-9 W=415e-9 DELVTO =-0.044009
m3138 net028965 net028945 net022181 vss! NMOS_VTL L=50e-9 W=210e-9 DELVTO =0.024938
m3137 net022181 s125a vss! vss! NMOS_VTL L=50e-9 W=210e-9 DELVTO =0.091356
m3134 vss! chal126 net028945 vss! NMOS_VTL L=50e-9 W=210e-9 DELVTO =0.025597
m3133 net022197 s124a vss! vss! NMOS_VTL L=50e-9 W=210e-9 DELVTO =0.054045
m3132 net21589 net029005 net022197 vss! NMOS_VTL L=50e-9 W=210e-9 DELVTO =0.087873
m3131 s125a net21589 vss! vss! NMOS_VTL L=50e-9 W=415e-9 DELVTO =-0.008983
m3129 vss! chal125 net029005 vss! NMOS_VTL L=50e-9 W=210e-9 DELVTO =0.066404
m3125 net022213 s123a vss! vss! NMOS_VTL L=50e-9 W=210e-9 DELVTO =-0.008715
m3124 net029037 net029033 net022213 vss! NMOS_VTL L=50e-9 W=210e-9 DELVTO =0.146996
m3123 s124a net029037 vss! vss! NMOS_VTL L=50e-9 W=415e-9 DELVTO =0.018220
m3122 vss! chal124 net029033 vss! NMOS_VTL L=50e-9 W=210e-9 DELVTO =-0.038184
m3118 s123a net029065 vss! vss! NMOS_VTL L=50e-9 W=415e-9 DELVTO =0.007030
m3115 vss! chal123 net029077 vss! NMOS_VTL L=50e-9 W=210e-9 DELVTO =-0.051303
m3114 net029065 net029077 net022233 vss! NMOS_VTL L=50e-9 W=210e-9 DELVTO =-0.106691
m3113 net022233 s122a vss! vss! NMOS_VTL L=50e-9 W=210e-9 DELVTO =0.024485
m3110 net029101 net029113 net022241 vss! NMOS_VTL L=50e-9 W=210e-9 DELVTO =0.016300
m3109 net022241 s121a vss! vss! NMOS_VTL L=50e-9 W=210e-9 DELVTO =0.045780
m3108 s122a net029101 vss! vss! NMOS_VTL L=50e-9 W=415e-9 DELVTO =-0.059147
m3106 vss! chal122 net029113 vss! NMOS_VTL L=50e-9 W=210e-9 DELVTO =-0.056358
m3105 net022261 s120a vss! vss! NMOS_VTL L=50e-9 W=210e-9 DELVTO =-0.034353
m3104 net029145 net029141 net022261 vss! NMOS_VTL L=50e-9 W=210e-9 DELVTO =-0.070400
m3103 s121a net029145 vss! vss! NMOS_VTL L=50e-9 W=415e-9 DELVTO =0.188395
m3101 vss! chal121 net029141 vss! NMOS_VTL L=50e-9 W=210e-9 DELVTO =0.026007
m3098 s120a net029173 vss! vss! NMOS_VTL L=50e-9 W=415e-9 DELVTO =-0.045719
m3096 net029173 net029185 net022277 vss! NMOS_VTL L=50e-9 W=210e-9 DELVTO =0.029703
m3095 net022277 s119a vss! vss! NMOS_VTL L=50e-9 W=210e-9 DELVTO =0.086067
m3092 vss! chal120 net029185 vss! NMOS_VTL L=50e-9 W=210e-9 DELVTO =0.047432
m3091 s119a net029209 vss! vss! NMOS_VTL L=50e-9 W=415e-9 DELVTO =0.064165
m3089 net029209 net029221 net022293 vss! NMOS_VTL L=50e-9 W=210e-9 DELVTO =0.033652
m3088 net022293 s118a vss! vss! NMOS_VTL L=50e-9 W=210e-9 DELVTO =-0.105500
m3087 vss! chal119 net029221 vss! NMOS_VTL L=50e-9 W=210e-9 DELVTO =-0.053193
m3084 s118a net029245 vss! vss! NMOS_VTL L=50e-9 W=415e-9 DELVTO =0.074189
m3082 net029245 net029257 net022309 vss! NMOS_VTL L=50e-9 W=210e-9 DELVTO =-0.013866
m3080 net022309 s117a vss! vss! NMOS_VTL L=50e-9 W=210e-9 DELVTO =0.018144
m3078 vss! chal118 net029257 vss! NMOS_VTL L=50e-9 W=210e-9 DELVTO =0.038845
m3077 net20711 net029293 net022321 vss! NMOS_VTL L=50e-9 W=210e-9 DELVTO =-0.071500
m3076 s117a net20711 vss! vss! NMOS_VTL L=50e-9 W=415e-9 DELVTO =0.013308
m3074 net022321 s116a vss! vss! NMOS_VTL L=50e-9 W=210e-9 DELVTO =-0.030435
m3073 vss! chal117 net029293 vss! NMOS_VTL L=50e-9 W=210e-9 DELVTO =-0.103192
m3068 s116a net029317 vss! vss! NMOS_VTL L=50e-9 W=415e-9 DELVTO =0.027526
m3067 net029317 net029329 net022341 vss! NMOS_VTL L=50e-9 W=210e-9 DELVTO =-0.059086
m3066 net022341 s115a vss! vss! NMOS_VTL L=50e-9 W=210e-9 DELVTO =-0.035198
m3064 vss! chal116 net029329 vss! NMOS_VTL L=50e-9 W=210e-9 DELVTO =-0.093745
m3063 net022357 s114a vss! vss! NMOS_VTL L=50e-9 W=210e-9 DELVTO =-0.042207
m3062 net029361 net029357 net022357 vss! NMOS_VTL L=50e-9 W=210e-9 DELVTO =0.030767
m3061 s115a net029361 vss! vss! NMOS_VTL L=50e-9 W=415e-9 DELVTO =0.110005
m3059 vss! chal115 net029357 vss! NMOS_VTL L=50e-9 W=210e-9 DELVTO =-0.079208
m3055 s114a net029389 vss! vss! NMOS_VTL L=50e-9 W=415e-9 DELVTO =0.024172
m3054 net022377 s113a vss! vss! NMOS_VTL L=50e-9 W=210e-9 DELVTO =0.036637
m3053 net029389 net029401 net022377 vss! NMOS_VTL L=50e-9 W=210e-9 DELVTO =0.073077
m3052 vss! chal114 net029401 vss! NMOS_VTL L=50e-9 W=210e-9 DELVTO =0.088191
m3048 s113a net029425 vss! vss! NMOS_VTL L=50e-9 W=415e-9 DELVTO =-0.077412
m3045 net029425 net029437 net022389 vss! NMOS_VTL L=50e-9 W=210e-9 DELVTO =0.004296
m3044 net022389 s112a vss! vss! NMOS_VTL L=50e-9 W=210e-9 DELVTO =0.086149
m3043 vss! chal113 net029437 vss! NMOS_VTL L=50e-9 W=210e-9 DELVTO =0.038157
m3041 s112a net029469 vss! vss! NMOS_VTL L=50e-9 W=415e-9 DELVTO =0.097998
m3038 vss! chal112 net029465 vss! NMOS_VTL L=50e-9 W=210e-9 DELVTO =0.085154
m3037 net022413 s111a vss! vss! NMOS_VTL L=50e-9 W=210e-9 DELVTO =0.164066
m3036 net029469 net029465 net022413 vss! NMOS_VTL L=50e-9 W=210e-9 DELVTO =-0.183402
m3033 net022421 s110a vss! vss! NMOS_VTL L=50e-9 W=210e-9 DELVTO =-0.023230
m3032 net029497 net029509 net022421 vss! NMOS_VTL L=50e-9 W=210e-9 DELVTO =-0.023704
m3030 s111a net029497 vss! vss! NMOS_VTL L=50e-9 W=415e-9 DELVTO =-0.099654
m3029 vss! chal111 net029509 vss! NMOS_VTL L=50e-9 W=210e-9 DELVTO =-0.036487
m3027 s110a net029533 vss! vss! NMOS_VTL L=50e-9 W=415e-9 DELVTO =0.099556
m3024 net022441 s109a vss! vss! NMOS_VTL L=50e-9 W=210e-9 DELVTO =0.004151
m3023 net029533 net029545 net022441 vss! NMOS_VTL L=50e-9 W=210e-9 DELVTO =0.067241
m3022 vss! chal110 net029545 vss! NMOS_VTL L=50e-9 W=210e-9 DELVTO =0.114444
m3018 s109a net19022 vss! vss! NMOS_VTL L=50e-9 W=415e-9 DELVTO =-0.020319
m3017 net19022 net029581 net022453 vss! NMOS_VTL L=50e-9 W=210e-9 DELVTO =-0.028673
m3016 net022453 s108a vss! vss! NMOS_VTL L=50e-9 W=210e-9 DELVTO =-0.092198
m3015 vss! chal109 net029581 vss! NMOS_VTL L=50e-9 W=210e-9 DELVTO =-0.019411
m3012 s108a net029609 vss! vss! NMOS_VTL L=50e-9 W=415e-9 DELVTO =-0.050028
m3011 net029609 net029613 net022469 vss! NMOS_VTL L=50e-9 W=210e-9 DELVTO =-0.015350
m3010 net022469 s107a vss! vss! NMOS_VTL L=50e-9 W=210e-9 DELVTO =-0.015791
m3008 vss! chal108 net029613 vss! NMOS_VTL L=50e-9 W=210e-9 DELVTO =-0.050985
m3007 s107a net029641 vss! vss! NMOS_VTL L=50e-9 W=415e-9 DELVTO =-0.080128
m3005 vss! chal107 net029653 vss! NMOS_VTL L=50e-9 W=210e-9 DELVTO =-0.026438
m3002 net022493 s106a vss! vss! NMOS_VTL L=50e-9 W=210e-9 DELVTO =0.001024
m3001 net029641 net029653 net022493 vss! NMOS_VTL L=50e-9 W=210e-9 DELVTO =-0.062697
m2999 s106a net029677 vss! vss! NMOS_VTL L=50e-9 W=415e-9 DELVTO =0.024657
m2998 net022505 s105a vss! vss! NMOS_VTL L=50e-9 W=210e-9 DELVTO =-0.010089
m2997 net029677 net029689 net022505 vss! NMOS_VTL L=50e-9 W=210e-9 DELVTO =-0.018246
m2996 vss! chal106 net029689 vss! NMOS_VTL L=50e-9 W=210e-9 DELVTO =0.063821
m2992 s105a net029717 vss! vss! NMOS_VTL L=50e-9 W=415e-9 DELVTO =0.161433
m2991 net029717 net029721 net022517 vss! NMOS_VTL L=50e-9 W=210e-9 DELVTO =0.059335
m2990 net022517 s104a vss! vss! NMOS_VTL L=50e-9 W=210e-9 DELVTO =0.044988
m2987 vss! chal105 net029721 vss! NMOS_VTL L=50e-9 W=210e-9 DELVTO =0.000330
m2985 s104a net029749 vss! vss! NMOS_VTL L=50e-9 W=415e-9 DELVTO =0.009085
m2982 vss! chal104 net029761 vss! NMOS_VTL L=50e-9 W=210e-9 DELVTO =0.040700
m2981 net022541 s103a vss! vss! NMOS_VTL L=50e-9 W=210e-9 DELVTO =-0.038709
m2980 net029749 net029761 net022541 vss! NMOS_VTL L=50e-9 W=210e-9 DELVTO =-0.104479
m2977 net022549 s102a vss! vss! NMOS_VTL L=50e-9 W=210e-9 DELVTO =0.030038
m2976 net029785 net029797 net022549 vss! NMOS_VTL L=50e-9 W=210e-9 DELVTO =-0.049131
m2974 s103a net029785 vss! vss! NMOS_VTL L=50e-9 W=415e-9 DELVTO =0.027560
m2973 vss! chal103 net029797 vss! NMOS_VTL L=50e-9 W=210e-9 DELVTO =-0.058138
m2971 s102a net029821 vss! vss! NMOS_VTL L=50e-9 W=415e-9 DELVTO =-0.087739
m2968 net022569 s101a vss! vss! NMOS_VTL L=50e-9 W=210e-9 DELVTO =-0.098240
m2967 net029821 net029833 net022569 vss! NMOS_VTL L=50e-9 W=210e-9 DELVTO =0.019677
m2966 vss! chal102 net029833 vss! NMOS_VTL L=50e-9 W=210e-9 DELVTO =0.136818
m2962 s101a net19841 vss! vss! NMOS_VTL L=50e-9 W=415e-9 DELVTO =0.014031
m2961 net19841 net029861 net022581 vss! NMOS_VTL L=50e-9 W=210e-9 DELVTO =0.034335
m2960 net022581 s100a vss! vss! NMOS_VTL L=50e-9 W=210e-9 DELVTO =0.010067
m2959 vss! chal101 net029861 vss! NMOS_VTL L=50e-9 W=210e-9 DELVTO =0.016107
m2957 s100a net029893 vss! vss! NMOS_VTL L=50e-9 W=415e-9 DELVTO =0.165583
m2956 net022601 s99a vss! vss! NMOS_VTL L=50e-9 W=210e-9 DELVTO =-0.054689
m2955 net029893 net029905 net022601 vss! NMOS_VTL L=50e-9 W=210e-9 DELVTO =-0.011122
m2952 vss! chal100 net029905 vss! NMOS_VTL L=50e-9 W=210e-9 DELVTO =-0.047160
m2950 s99a net029933 vss! vss! NMOS_VTL L=50e-9 W=415e-9 DELVTO =0.049983
m2949 net029933 net029937 net022613 vss! NMOS_VTL L=50e-9 W=210e-9 DELVTO =0.017863
m2948 net022613 s98a vss! vss! NMOS_VTL L=50e-9 W=210e-9 DELVTO =-0.022908
m2945 vss! chal99 net029937 vss! NMOS_VTL L=50e-9 W=210e-9 DELVTO =0.051947
m2944 s98a net029965 vss! vss! NMOS_VTL L=50e-9 W=415e-9 DELVTO =-0.070399
m2943 net029965 net029977 net022629 vss! NMOS_VTL L=50e-9 W=210e-9 DELVTO =0.008359
m2942 net022629 s97a vss! vss! NMOS_VTL L=50e-9 W=210e-9 DELVTO =0.014031
m2938 vss! chal98 net029977 vss! NMOS_VTL L=50e-9 W=210e-9 DELVTO =0.110170
m2937 s97a net030009 vss! vss! NMOS_VTL L=50e-9 W=415e-9 DELVTO =0.037704
m2935 net022649 s96a vss! vss! NMOS_VTL L=50e-9 W=210e-9 DELVTO =0.002314
m2934 net030009 net030005 net022649 vss! NMOS_VTL L=50e-9 W=210e-9 DELVTO =-0.093922
m2931 vss! chal97 net030005 vss! NMOS_VTL L=50e-9 W=210e-9 DELVTO =-0.102964
m2930 s96a net030045 vss! vss! NMOS_VTL L=50e-9 W=415e-9 DELVTO =0.041344
m2928 net030045 net030025 net022661 vss! NMOS_VTL L=50e-9 W=210e-9 DELVTO =-0.049013
m2927 net022661 s95a vss! vss! NMOS_VTL L=50e-9 W=210e-9 DELVTO =-0.016883
m2926 vss! chal96 net030025 vss! NMOS_VTL L=50e-9 W=210e-9 DELVTO =-0.060859
m2923 s95a net030073 vss! vss! NMOS_VTL L=50e-9 W=415e-9 DELVTO =0.012712
m2921 net030073 net030085 net022677 vss! NMOS_VTL L=50e-9 W=210e-9 DELVTO =0.015952
m2920 net022677 s94a vss! vss! NMOS_VTL L=50e-9 W=210e-9 DELVTO =0.122130
m2917 vss! chal95 net030085 vss! NMOS_VTL L=50e-9 W=210e-9 DELVTO =0.127251
m2916 s94a net030109 vss! vss! NMOS_VTL L=50e-9 W=415e-9 DELVTO =0.074314
m2915 net030109 net030121 net022693 vss! NMOS_VTL L=50e-9 W=210e-9 DELVTO =0.075879
m2914 net022693 s93a vss! vss! NMOS_VTL L=50e-9 W=210e-9 DELVTO =-0.081877
m2912 vss! chal94 net030121 vss! NMOS_VTL L=50e-9 W=210e-9 DELVTO =0.089304
m2909 s93a net20343 vss! vss! NMOS_VTL L=50e-9 W=415e-9 DELVTO =-0.065910
m2907 net022713 s92a vss! vss! NMOS_VTL L=50e-9 W=210e-9 DELVTO =-0.111962
m2906 net20343 net030157 net022713 vss! NMOS_VTL L=50e-9 W=210e-9 DELVTO =0.221638
m2903 vss! chal93 net030157 vss! NMOS_VTL L=50e-9 W=210e-9 DELVTO =0.022307
m2899 s92a net030181 vss! vss! NMOS_VTL L=50e-9 W=415e-9 DELVTO =-0.046406
m2898 net022729 s91a vss! vss! NMOS_VTL L=50e-9 W=210e-9 DELVTO =0.000555
m2897 net030181 net030193 net022729 vss! NMOS_VTL L=50e-9 W=210e-9 DELVTO =0.004831
m2896 vss! chal92 net030193 vss! NMOS_VTL L=50e-9 W=210e-9 DELVTO =-0.144902
m2894 net022741 s90a vss! vss! NMOS_VTL L=50e-9 W=210e-9 DELVTO =-0.050089
m2893 net030217 net030229 net022741 vss! NMOS_VTL L=50e-9 W=210e-9 DELVTO =0.037052
m2892 s91a net030217 vss! vss! NMOS_VTL L=50e-9 W=415e-9 DELVTO =0.002488
m2889 vss! chal91 net030229 vss! NMOS_VTL L=50e-9 W=210e-9 DELVTO =-0.116403
m2887 s90a net030261 vss! vss! NMOS_VTL L=50e-9 W=415e-9 DELVTO =-0.034404
m2884 net022761 s89a vss! vss! NMOS_VTL L=50e-9 W=210e-9 DELVTO =-0.010505
m2883 net030261 net030257 net022761 vss! NMOS_VTL L=50e-9 W=210e-9 DELVTO =0.005693
m2882 vss! chal90 net030257 vss! NMOS_VTL L=50e-9 W=210e-9 DELVTO =-0.117514
m2880 net022773 s88a vss! vss! NMOS_VTL L=50e-9 W=210e-9 DELVTO =0.017874
m2879 net030297 net030277 net022773 vss! NMOS_VTL L=50e-9 W=210e-9 DELVTO =0.107034
m2878 s89a net030297 vss! vss! NMOS_VTL L=50e-9 W=415e-9 DELVTO =-0.111491
m2877 vss! chal89 net030277 vss! NMOS_VTL L=50e-9 W=210e-9 DELVTO =0.030715
m2873 s88a net030325 vss! vss! NMOS_VTL L=50e-9 W=415e-9 DELVTO =0.094056
m2870 net030325 net030337 net022789 vss! NMOS_VTL L=50e-9 W=210e-9 DELVTO =0.026624
m2869 net022789 s87a vss! vss! NMOS_VTL L=50e-9 W=210e-9 DELVTO =0.041234
m2868 vss! chal88 net030337 vss! NMOS_VTL L=50e-9 W=210e-9 DELVTO =-0.033253
m2866 s87a net030361 vss! vss! NMOS_VTL L=50e-9 W=415e-9 DELVTO =-0.012963
m2865 net030361 net030373 net022805 vss! NMOS_VTL L=50e-9 W=210e-9 DELVTO =-0.080130
m2864 net022805 s86a vss! vss! NMOS_VTL L=50e-9 W=210e-9 DELVTO =-0.008505
m2861 vss! chal87 net030373 vss! NMOS_VTL L=50e-9 W=210e-9 DELVTO =-0.038683
m2859 s86a net030397 vss! vss! NMOS_VTL L=50e-9 W=415e-9 DELVTO =-0.046062
m2856 net022825 s85a vss! vss! NMOS_VTL L=50e-9 W=210e-9 DELVTO =0.101308
m2855 net030397 net030409 net022825 vss! NMOS_VTL L=50e-9 W=210e-9 DELVTO =-0.008194
m2854 vss! chal86 net030409 vss! NMOS_VTL L=50e-9 W=210e-9 DELVTO =0.044095
m2852 s85a net030437 vss! vss! NMOS_VTL L=50e-9 W=415e-9 DELVTO =0.026272
m2851 net030437 net030441 net022837 vss! NMOS_VTL L=50e-9 W=210e-9 DELVTO =-0.071042
m2850 net022837 s84a vss! vss! NMOS_VTL L=50e-9 W=210e-9 DELVTO =-0.132290
m2847 vss! chal85 net030441 vss! NMOS_VTL L=50e-9 W=210e-9 DELVTO =-0.100363
m2845 s84a net030469 vss! vss! NMOS_VTL L=50e-9 W=415e-9 DELVTO =0.019316
m2842 net022857 s83a vss! vss! NMOS_VTL L=50e-9 W=210e-9 DELVTO =-0.021085
m2841 net030469 net030481 net022857 vss! NMOS_VTL L=50e-9 W=210e-9 DELVTO =0.053165
m2840 vss! chal84 net030481 vss! NMOS_VTL L=50e-9 W=210e-9 DELVTO =-0.026596
m2838 net022869 s82a vss! vss! NMOS_VTL L=50e-9 W=210e-9 DELVTO =-0.092561
m2837 net030505 net030517 net022869 vss! NMOS_VTL L=50e-9 W=210e-9 DELVTO =0.006743
m2836 s83a net030505 vss! vss! NMOS_VTL L=50e-9 W=415e-9 DELVTO =0.077073
m2833 vss! chal83 net030517 vss! NMOS_VTL L=50e-9 W=210e-9 DELVTO =0.018579
m2831 s82a net030541 vss! vss! NMOS_VTL L=50e-9 W=415e-9 DELVTO =-0.013017
m2830 vss! chal82 net030553 vss! NMOS_VTL L=50e-9 W=210e-9 DELVTO =-0.029465
m2827 net022893 s81a vss! vss! NMOS_VTL L=50e-9 W=210e-9 DELVTO =0.088769
m2826 net030541 net030553 net022893 vss! NMOS_VTL L=50e-9 W=210e-9 DELVTO =0.064002
m2824 s81a net19306 vss! vss! NMOS_VTL L=50e-9 W=415e-9 DELVTO =-0.030076
m2823 net19306 net030589 net022901 vss! NMOS_VTL L=50e-9 W=210e-9 DELVTO =-0.094248
m2822 net022901 s80a vss! vss! NMOS_VTL L=50e-9 W=210e-9 DELVTO =-0.063949
m2820 vss! chal81 net030589 vss! NMOS_VTL L=50e-9 W=210e-9 DELVTO =0.023333
m2818 s128b net028869 vss! vss! NMOS_VTL L=50e-9 W=415e-9 DELVTO =-0.076481
m2816 net022914 s127a vss! vss! NMOS_VTL L=50e-9 W=210e-9 DELVTO =-0.027087
m2814 net028869 net028893 net022921 vss! NMOS_VTL L=50e-9 W=210e-9 DELVTO =-0.008570
m2813 net028869 chal128 net022914 vss! NMOS_VTL L=50e-9 W=210e-9 DELVTO =-0.046184
m2810 net022921 s127b vss! vss! NMOS_VTL L=50e-9 W=210e-9 DELVTO =-0.043713
m2808 net022930 s127b vss! vss! NMOS_VTL L=50e-9 W=210e-9 DELVTO =-0.015842
m2806 net028885 chal128 net022930 vss! NMOS_VTL L=50e-9 W=210e-9 DELVTO =-0.038559
m2803 vss! chal128 net028893 vss! NMOS_VTL L=50e-9 W=210e-9 DELVTO =-0.093959
m2801 net022942 s126a vss! vss! NMOS_VTL L=50e-9 W=210e-9 DELVTO =0.051561
m2800 s127b net028905 vss! vss! NMOS_VTL L=50e-9 W=415e-9 DELVTO =-0.064368
m2799 net028905 net028929 net022953 vss! NMOS_VTL L=50e-9 W=210e-9 DELVTO =0.072453
m2798 net028905 chal127 net022942 vss! NMOS_VTL L=50e-9 W=210e-9 DELVTO =-0.024039
m2796 net022953 s126b vss! vss! NMOS_VTL L=50e-9 W=210e-9 DELVTO =-0.021552
m2795 net022962 s126b vss! vss! NMOS_VTL L=50e-9 W=210e-9 DELVTO =0.090690
m2794 net028921 chal127 net022962 vss! NMOS_VTL L=50e-9 W=210e-9 DELVTO =0.018276
m2786 vss! chal127 net028929 vss! NMOS_VTL L=50e-9 W=210e-9 DELVTO =-0.028159
m2784 s126b net028949 vss! vss! NMOS_VTL L=50e-9 W=415e-9 DELVTO =-0.057887
m2782 net022978 s125a vss! vss! NMOS_VTL L=50e-9 W=210e-9 DELVTO =-0.036205
m2781 net028949 chal126 net022978 vss! NMOS_VTL L=50e-9 W=210e-9 DELVTO =0.027994
m2780 net022993 s125b vss! vss! NMOS_VTL L=50e-9 W=210e-9 DELVTO =0.059299
m2779 net028949 net028941 net022993 vss! NMOS_VTL L=50e-9 W=210e-9 DELVTO =0.003361
m2778 net022994 s125b vss! vss! NMOS_VTL L=50e-9 W=210e-9 DELVTO =-0.034505
m2777 net028965 chal126 net022994 vss! NMOS_VTL L=50e-9 W=210e-9 DELVTO =0.023481
m2775 vss! chal126 net028941 vss! NMOS_VTL L=50e-9 W=210e-9 DELVTO =0.046985
m2767 s125b net028977 vss! vss! NMOS_VTL L=50e-9 W=415e-9 DELVTO =-0.029516
m2765 net023010 s124a vss! vss! NMOS_VTL L=50e-9 W=210e-9 DELVTO =0.101019
m2763 net028977 chal125 net023010 vss! NMOS_VTL L=50e-9 W=210e-9 DELVTO =-0.025500
m2761 net028977 net15878 net17576 vss! NMOS_VTL L=50e-9 W=210e-9 DELVTO =0.062880
m2760 net17576 s124b vss! vss! NMOS_VTL L=50e-9 W=210e-9 DELVTO =0.067784
m2757 net19531 s124b vss! vss! NMOS_VTL L=50e-9 W=210e-9 DELVTO =0.003964
m2755 net21589 chal125 net19531 vss! NMOS_VTL L=50e-9 W=210e-9 DELVTO =-0.005927
m2752 vss! chal125 net15878 vss! NMOS_VTL L=50e-9 W=210e-9 DELVTO =0.061041
m2750 s124b net029021 vss! vss! NMOS_VTL L=50e-9 W=415e-9 DELVTO =-0.126256
m2748 net023042 s123a vss! vss! NMOS_VTL L=50e-9 W=210e-9 DELVTO =0.002362
m2747 net029021 chal124 net023042 vss! NMOS_VTL L=50e-9 W=210e-9 DELVTO =0.004840
m2746 net029021 net029013 net023053 vss! NMOS_VTL L=50e-9 W=210e-9 DELVTO =0.025591
m2745 net023053 s123b vss! vss! NMOS_VTL L=50e-9 W=210e-9 DELVTO =-0.061940
m2744 net023058 s123b vss! vss! NMOS_VTL L=50e-9 W=210e-9 DELVTO =-0.098712
m2743 net029037 chal124 net023058 vss! NMOS_VTL L=50e-9 W=210e-9 DELVTO =-0.184687
m2738 vss! chal124 net029013 vss! NMOS_VTL L=50e-9 W=210e-9 DELVTO =0.038157
m2733 s123b net029049 vss! vss! NMOS_VTL L=50e-9 W=415e-9 DELVTO =0.075460
m2729 net029049 chal123 net023078 vss! NMOS_VTL L=50e-9 W=210e-9 DELVTO =-0.031103
m2728 net023078 s122a vss! vss! NMOS_VTL L=50e-9 W=210e-9 DELVTO =0.166553
m2726 net029049 net029073 net023085 vss! NMOS_VTL L=50e-9 W=210e-9 DELVTO =-0.044868
m2724 net023085 s122b vss! vss! NMOS_VTL L=50e-9 W=210e-9 DELVTO =-0.091790
m2722 net023090 s122b vss! vss! NMOS_VTL L=50e-9 W=210e-9 DELVTO =-0.010198
m2720 net029065 chal123 net023090 vss! NMOS_VTL L=50e-9 W=210e-9 DELVTO =0.007405
m2718 vss! chal123 net029073 vss! NMOS_VTL L=50e-9 W=210e-9 DELVTO =0.047765
m2716 net023102 s121a vss! vss! NMOS_VTL L=50e-9 W=210e-9 DELVTO =0.008473
m2715 net029085 net029109 net023109 vss! NMOS_VTL L=50e-9 W=210e-9 DELVTO =-0.053453
m2714 net029085 chal122 net023102 vss! NMOS_VTL L=50e-9 W=210e-9 DELVTO =-0.106612
m2713 net023109 s121b vss! vss! NMOS_VTL L=50e-9 W=210e-9 DELVTO =-0.041069
m2712 net023118 s121b vss! vss! NMOS_VTL L=50e-9 W=210e-9 DELVTO =-0.095462
m2711 net029101 chal122 net023118 vss! NMOS_VTL L=50e-9 W=210e-9 DELVTO =0.050652
m2710 s122b net029085 vss! vss! NMOS_VTL L=50e-9 W=415e-9 DELVTO =-0.007254
m2701 vss! chal122 net029109 vss! NMOS_VTL L=50e-9 W=210e-9 DELVTO =-0.129710
m2699 s121b net029125 vss! vss! NMOS_VTL L=50e-9 W=415e-9 DELVTO =0.025592
m2697 net023138 s120a vss! vss! NMOS_VTL L=50e-9 W=210e-9 DELVTO =-0.064569
m2696 net029125 chal121 net023138 vss! NMOS_VTL L=50e-9 W=210e-9 DELVTO =0.094526
m2695 net029125 net029121 net023149 vss! NMOS_VTL L=50e-9 W=210e-9 DELVTO =0.003654
m2694 net023149 s120b vss! vss! NMOS_VTL L=50e-9 W=210e-9 DELVTO =0.016046
m2693 net023154 s120b vss! vss! NMOS_VTL L=50e-9 W=210e-9 DELVTO =-0.055117
m2692 net029145 chal121 net023154 vss! NMOS_VTL L=50e-9 W=210e-9 DELVTO =0.036611
m2688 vss! chal121 net029121 vss! NMOS_VTL L=50e-9 W=210e-9 DELVTO =0.004543
m2682 s120b net029157 vss! vss! NMOS_VTL L=50e-9 W=415e-9 DELVTO =0.015132
m2680 net023170 s119a vss! vss! NMOS_VTL L=50e-9 W=210e-9 DELVTO =-0.022419
m2678 net029157 chal120 net023170 vss! NMOS_VTL L=50e-9 W=210e-9 DELVTO =0.045037
m2676 net023185 s119b vss! vss! NMOS_VTL L=50e-9 W=210e-9 DELVTO =-0.170744
m2675 net029157 net029181 net023185 vss! NMOS_VTL L=50e-9 W=210e-9 DELVTO =0.011598
m2672 net023186 s119b vss! vss! NMOS_VTL L=50e-9 W=210e-9 DELVTO =0.073374
m2670 net029173 chal120 net023186 vss! NMOS_VTL L=50e-9 W=210e-9 DELVTO =-0.013347
m2667 vss! chal120 net029181 vss! NMOS_VTL L=50e-9 W=210e-9 DELVTO =0.040469
m2665 s119b net029193 vss! vss! NMOS_VTL L=50e-9 W=415e-9 DELVTO =-0.041685
m2663 net023202 s118a vss! vss! NMOS_VTL L=50e-9 W=210e-9 DELVTO =0.012092
m2661 net029193 chal119 net023202 vss! NMOS_VTL L=50e-9 W=210e-9 DELVTO =-0.040878
m2659 net023217 s118b vss! vss! NMOS_VTL L=50e-9 W=210e-9 DELVTO =0.080152
m2658 net029193 net029217 net023217 vss! NMOS_VTL L=50e-9 W=210e-9 DELVTO =0.032896
m2655 net023218 s118b vss! vss! NMOS_VTL L=50e-9 W=210e-9 DELVTO =0.096315
m2653 net029209 chal119 net023218 vss! NMOS_VTL L=50e-9 W=210e-9 DELVTO =-0.002923
m2650 vss! chal119 net029217 vss! NMOS_VTL L=50e-9 W=210e-9 DELVTO =-0.004152
m2648 s118b net029229 vss! vss! NMOS_VTL L=50e-9 W=415e-9 DELVTO =0.021931
m2646 net023234 s117a vss! vss! NMOS_VTL L=50e-9 W=210e-9 DELVTO =0.101387
m2644 net029229 chal118 net023234 vss! NMOS_VTL L=50e-9 W=210e-9 DELVTO =-0.167310
m2642 net023249 s117b vss! vss! NMOS_VTL L=50e-9 W=210e-9 DELVTO =-0.117359
m2641 net029229 net029253 net023249 vss! NMOS_VTL L=50e-9 W=210e-9 DELVTO =0.088673
m2638 net023250 s117b vss! vss! NMOS_VTL L=50e-9 W=210e-9 DELVTO =0.132547
m2636 net029245 chal118 net023250 vss! NMOS_VTL L=50e-9 W=210e-9 DELVTO =-0.014334
m2633 vss! chal118 net029253 vss! NMOS_VTL L=50e-9 W=210e-9 DELVTO =0.094767
m2631 net023262 s116a vss! vss! NMOS_VTL L=50e-9 W=210e-9 DELVTO =0.151914
m2630 net029265 chal117 net023262 vss! NMOS_VTL L=50e-9 W=210e-9 DELVTO =0.013279
m2629 s117b net029265 vss! vss! NMOS_VTL L=50e-9 W=415e-9 DELVTO =-0.031887
m2628 net029265 net16859 net18435 vss! NMOS_VTL L=50e-9 W=210e-9 DELVTO =-0.033404
m2627 net18435 s116b vss! vss! NMOS_VTL L=50e-9 W=210e-9 DELVTO =-0.017929
m2625 net19505 s116b vss! vss! NMOS_VTL L=50e-9 W=210e-9 DELVTO =0.055907
m2624 net20711 chal117 net19505 vss! NMOS_VTL L=50e-9 W=210e-9 DELVTO =-0.011945
m2616 vss! chal117 net16859 vss! NMOS_VTL L=50e-9 W=210e-9 DELVTO =0.142612
m2614 net029301 chal116 net023298 vss! NMOS_VTL L=50e-9 W=210e-9 DELVTO =-0.023778
m2613 net023298 s115a vss! vss! NMOS_VTL L=50e-9 W=210e-9 DELVTO =-0.050110
m2612 net029301 net029325 net023305 vss! NMOS_VTL L=50e-9 W=210e-9 DELVTO =0.038116
m2611 s116b net029301 vss! vss! NMOS_VTL L=50e-9 W=415e-9 DELVTO =0.016472
m2610 net023305 s115b vss! vss! NMOS_VTL L=50e-9 W=210e-9 DELVTO =0.032377
m2608 net023314 s115b vss! vss! NMOS_VTL L=50e-9 W=210e-9 DELVTO =-0.146571
m2607 net029317 chal116 net023314 vss! NMOS_VTL L=50e-9 W=210e-9 DELVTO =-0.010500
m2599 vss! chal116 net029325 vss! NMOS_VTL L=50e-9 W=210e-9 DELVTO =-0.128347
m2597 s115b net029345 vss! vss! NMOS_VTL L=50e-9 W=415e-9 DELVTO =0.012974
m2595 net023330 s114a vss! vss! NMOS_VTL L=50e-9 W=210e-9 DELVTO =0.053549
m2594 net029345 chal115 net023330 vss! NMOS_VTL L=50e-9 W=210e-9 DELVTO =0.082571
m2593 net029345 net029337 net023341 vss! NMOS_VTL L=50e-9 W=210e-9 DELVTO =0.052708
m2592 net023341 s114b vss! vss! NMOS_VTL L=50e-9 W=210e-9 DELVTO =0.033885
m2591 net023346 s114b vss! vss! NMOS_VTL L=50e-9 W=210e-9 DELVTO =0.054281
m2590 net029361 chal115 net023346 vss! NMOS_VTL L=50e-9 W=210e-9 DELVTO =-0.003966
m2585 vss! chal115 net029337 vss! NMOS_VTL L=50e-9 W=210e-9 DELVTO =-0.002695
m2580 s114b net029377 vss! vss! NMOS_VTL L=50e-9 W=415e-9 DELVTO =0.071431
m2578 net023362 s113a vss! vss! NMOS_VTL L=50e-9 W=210e-9 DELVTO =0.076110
m2577 net029377 chal114 net023362 vss! NMOS_VTL L=50e-9 W=210e-9 DELVTO =-0.032958
m2574 net029377 net029397 net023373 vss! NMOS_VTL L=50e-9 W=210e-9 DELVTO =-0.125810
m2572 net023373 s113b vss! vss! NMOS_VTL L=50e-9 W=210e-9 DELVTO =-0.160673
m2570 net023378 s113b vss! vss! NMOS_VTL L=50e-9 W=210e-9 DELVTO =-0.113581
m2568 net029389 chal114 net023378 vss! NMOS_VTL L=50e-9 W=210e-9 DELVTO =-0.070005
m2565 vss! chal114 net029397 vss! NMOS_VTL L=50e-9 W=210e-9 DELVTO =0.031298
m2563 net029409 chal113 net023394 vss! NMOS_VTL L=50e-9 W=210e-9 DELVTO =-0.054309
m2562 net023394 s112a vss! vss! NMOS_VTL L=50e-9 W=210e-9 DELVTO =-0.005973
m2561 s113b net029409 vss! vss! NMOS_VTL L=50e-9 W=415e-9 DELVTO =0.025857
m2560 net029409 net029433 net023405 vss! NMOS_VTL L=50e-9 W=210e-9 DELVTO =-0.097035
m2558 net023405 s112b vss! vss! NMOS_VTL L=50e-9 W=210e-9 DELVTO =-0.059517
m2557 net023410 s112b vss! vss! NMOS_VTL L=50e-9 W=210e-9 DELVTO =-0.052457
m2556 net029425 chal113 net023410 vss! NMOS_VTL L=50e-9 W=210e-9 DELVTO =-0.056125
m2548 vss! chal113 net029433 vss! NMOS_VTL L=50e-9 W=210e-9 DELVTO =-0.030747
m2546 s112b net029453 vss! vss! NMOS_VTL L=50e-9 W=415e-9 DELVTO =0.055103
m2544 net023426 s111a vss! vss! NMOS_VTL L=50e-9 W=210e-9 DELVTO =-0.035523
m2543 net029453 chal112 net023426 vss! NMOS_VTL L=50e-9 W=210e-9 DELVTO =0.048602
m2542 net029453 net029445 net023437 vss! NMOS_VTL L=50e-9 W=210e-9 DELVTO =0.023823
m2541 net023437 s111b vss! vss! NMOS_VTL L=50e-9 W=210e-9 DELVTO =0.013430
m2540 net023442 s111b vss! vss! NMOS_VTL L=50e-9 W=210e-9 DELVTO =0.068252
m2539 net029469 chal112 net023442 vss! NMOS_VTL L=50e-9 W=210e-9 DELVTO =0.149811
m2533 vss! chal112 net029445 vss! NMOS_VTL L=50e-9 W=210e-9 DELVTO =0.102713
m2529 s111b net029485 vss! vss! NMOS_VTL L=50e-9 W=415e-9 DELVTO =-0.110882
m2521 net023458 s110a vss! vss! NMOS_VTL L=50e-9 W=210e-9 DELVTO =0.037094
m2520 net029485 chal111 net023458 vss! NMOS_VTL L=50e-9 W=210e-9 DELVTO =-0.087279
m2519 net029485 net029505 net023469 vss! NMOS_VTL L=50e-9 W=210e-9 DELVTO =-0.140756
m2518 net023469 s110b vss! vss! NMOS_VTL L=50e-9 W=210e-9 DELVTO =-0.084750
m2517 net023474 s110b vss! vss! NMOS_VTL L=50e-9 W=210e-9 DELVTO =-0.152734
m2516 net029497 chal111 net023474 vss! NMOS_VTL L=50e-9 W=210e-9 DELVTO =-0.079189
m2514 vss! chal111 net029505 vss! NMOS_VTL L=50e-9 W=210e-9 DELVTO =0.094801
m2512 s110b net029517 vss! vss! NMOS_VTL L=50e-9 W=415e-9 DELVTO =-0.033354
m2509 net023490 s109a vss! vss! NMOS_VTL L=50e-9 W=210e-9 DELVTO =0.187651
m2506 net029517 chal110 net023490 vss! NMOS_VTL L=50e-9 W=210e-9 DELVTO =0.027357
m2505 net029517 net029541 net023501 vss! NMOS_VTL L=50e-9 W=210e-9 DELVTO =0.070280
m2503 net023501 s109b vss! vss! NMOS_VTL L=50e-9 W=210e-9 DELVTO =-0.010220
m2501 net023506 s109b vss! vss! NMOS_VTL L=50e-9 W=210e-9 DELVTO =-0.019570
m2499 net029533 chal110 net023506 vss! NMOS_VTL L=50e-9 W=210e-9 DELVTO =-0.054836
m2497 vss! chal110 net029541 vss! NMOS_VTL L=50e-9 W=210e-9 DELVTO =0.011257
m2495 s109b net029553 vss! vss! NMOS_VTL L=50e-9 W=415e-9 DELVTO =-0.103805
m2492 net023522 s108a vss! vss! NMOS_VTL L=50e-9 W=210e-9 DELVTO =-0.059505
m2489 net029553 net16774 net17356 vss! NMOS_VTL L=50e-9 W=210e-9 DELVTO =-0.074846